19
Properties=species:S:1:pos:R:3 pbc="F F F"
C       -2.52180400       0.11767500       1.13144900
C       -1.03180600       0.07070400       1.01467200
C       -0.29145200       0.04201700      -0.11715500
C        1.19772700      -0.01159100      -0.04162900
C        1.88997300       0.50703100       0.99054700
C        1.92953300      -0.65807000      -1.19011600
C       -0.89424200       0.02348400      -1.49982400
H       -2.82683500       0.94671300       1.77252800
H       -2.89994700      -0.79349000       1.60062800
H       -3.02207800       0.23174200       0.17362100
H       -0.50491600       0.04405700       1.96813200
H        1.39741800       1.00779200       1.81453200
H        2.97062000       0.44519000       1.02170700
H        1.55187400      -1.66238800      -1.38247900
H        2.99496100      -0.72650200      -0.98559600
H        1.79947800      -0.08564200      -2.10959700
H       -1.96338700       0.21345500      -1.48380400
H       -0.73608700      -0.94388000      -1.98015900
H       -0.42867200       0.77545100      -2.13717500
