12
Properties=species:S:1:pos:R:3 pbc="F F F"
C       -0.75622100       1.24850100       1.91548200
O       -1.48672400       0.58527300       0.89833400
C       -0.80198200      -0.04992400      -0.07635000
C        0.54967300      -0.12101400      -0.18567800
C        1.18410900      -0.81997500      -1.25835000
C        1.76163200      -1.40297700      -2.15280600
H       -1.47828400       1.69720200       2.60314500
H       -0.11945300       2.03949200       1.49186700
H       -0.11982700       0.54174800       2.46874900
H       -1.46757000      -0.52322700      -0.80249400
H        1.20620900       0.35267900       0.54112000
H        2.24945800      -1.91774600      -2.94284600
