17
Properties=species:S:1:pos:R:3 pbc="F F F"
C       -1.73499500      -0.06368600       1.22258500
C       -0.23506000       0.04463100       0.89610800
C        0.22612100      -1.13157900       0.01779400
C        0.14518400      -1.06879800      -1.47594100
C        1.47907200      -1.04934300      -0.79824900
C        0.07494500       1.35386800       0.29562700
C        0.32381700       2.44225100      -0.16651600
H       -1.94913100      -1.01243400       1.71129000
H       -2.33671100      -0.00656200       0.31853000
H       -2.04705200       0.73879400       1.88708500
H        0.32118200      -0.01112200       1.85138000
H        0.01095500      -2.10327300       0.46677500
H       -0.20137500      -0.14407900      -1.92477600
H       -0.14221200      -1.96920500      -2.00994300
H        2.02626100      -0.11264400      -0.79536900
H        2.09995800      -1.93719500      -0.86887700
H        0.54361400       3.39365400      -0.58454000
