19
Properties=species:S:1:pos:R:3 pbc="F F F"
C        0.83565600      -2.24760500       0.08560500
C        0.26488300      -0.83472300       0.26920200
C       -1.27676700      -0.86916500       0.15738100
C       -1.96632100       0.43231500       0.54268200
C        0.91914600       0.13356500      -0.75376000
C        0.84995300       1.54419600      -0.37379100
C        0.85815500       2.71407600      -0.06958900
H        1.91836400      -2.25045000       0.19758400
H        0.60157800      -2.64167000      -0.90191700
H        0.42025100      -2.93146400       0.82309900
H        0.53027100      -0.49155700       1.28029800
H       -1.55794000      -1.14474900      -0.86517800
H       -1.64874800      -1.67371100       0.80152200
H       -1.70506200       1.23772500      -0.13858000
H       -1.68635600       0.74041900       1.54772700
H       -3.04746800       0.31015000       0.51829600
H        0.45909000       0.00039000      -1.74163900
H        1.97875700      -0.13124100      -0.87017800
H        0.82904000       3.74020600       0.20259300
