16
Properties=species:S:1:pos:R:3 pbc="F F F"
C       -2.58041800       0.23439200      -1.12821500
C       -1.08831000       0.13793300      -1.08089200
C       -0.32463300       0.72259600      -0.14882600
C        1.17717900       0.61793000      -0.10078100
C        1.66837300      -0.12202000       1.15812800
O        1.21002900      -1.46095800       1.17728600
H       -2.91061900       0.68437600      -2.06586800
H       -2.96856200       0.83296900      -0.30744100
H       -3.03656600      -0.75571300      -1.07578000
H       -0.61556000      -0.44469800      -1.87155600
H       -0.79761300       1.30391800       0.64328700
H        1.61614300       1.62411200      -0.10909900
H        1.54360000       0.10262600      -0.99367700
H        1.32605000       0.41546900       2.06949700
H        2.76893900      -0.14189800       1.18626300
H        0.28081100      -1.47849200       0.90959900
