16
Properties=species:S:1:pos:R:3 pbc="F F F"
C       -0.93345200       0.72250200       1.98696100
C       -1.24038100      -0.35938600       0.94600800
N       -0.71151500      -0.04443700      -0.38178300
C        0.63347800      -0.18278700      -0.71713400
N        1.51919900      -0.81317500      -0.00491600
C        1.01456600       0.42490800      -2.04438400
H       -1.33917500       0.44695700       2.95757900
H       -1.36866600       1.67691800       1.69724000
H        0.13981100       0.86016500       2.09138400
H       -2.32768800      -0.49485400       0.85665400
H       -0.82733500      -1.32258900       1.27352900
H       -1.23991100       0.64430200      -0.90996800
H        1.13963800      -1.18530900       0.86852100
H        0.42352100      -0.00385900      -2.85374000
H        2.06409600       0.24932900      -2.25476700
H        0.83664800       1.50079500      -2.04824100
