19
Properties=species:S:1:pos:R:3 pbc="F F F"
C       -0.55590800      -2.48407400       2.08505400
C       -0.28131900      -1.58514500       1.12705700
C       -0.43201300      -0.14577400       1.31101500
C       -0.17839900       0.80977300       0.39488500
C        0.31405700       0.60912700      -1.02414300
C       -0.72511700       1.13189200      -2.03163200
C        1.66956300       1.30836900      -1.22834800
H       -0.43192600      -3.54560600       1.91166000
H       -0.91007000      -2.17572700       3.06210900
H        0.07298700      -1.93713400       0.15878800
H       -0.78568200       0.16866700       2.29343800
H       -0.34231900       1.84877900       0.68422400
H        0.45651500      -0.46522600      -1.21239000
H       -0.90886900       2.19466800      -1.88764400
H       -1.67180100       0.60875300      -1.91819300
H       -0.37692700       0.98591200      -3.05227100
H        1.58756900       2.37934500      -1.05389500
H        2.02856900       1.15995600      -2.24500000
H        2.41676300       0.91259900      -0.54414600
