15
Properties=species:S:1:pos:R:3 pbc="F F F"
O       -1.08135000      -2.01690100       0.23417600
C       -1.46030400      -0.69881800       0.59172000
C       -0.82690300       0.30397100      -0.37107400
C        0.69474300       0.24240400      -0.35799300
C        1.50175200       1.09827700       0.55662700
N        1.41666900       1.40886300      -0.87213400
H       -1.50297100      -2.65161000       0.82725000
H       -1.14938700      -0.48648900       1.63817400
H       -2.56763500      -0.60466400       0.56978800
H       -1.15837300       1.31428200      -0.11154300
H       -1.19022400       0.10347100      -1.38535200
H        1.11362600      -0.73721500      -0.61463600
H        2.45688400       0.72331500       0.93046000
H        1.00412700       1.81165900       1.21578200
H        2.27234300       1.12541200      -1.35408300
