11
Properties=species:S:1:pos:R:3 pbc="F F F"
C       -0.75890400      -1.60546300      -0.03701000
O       -1.10786200      -0.33860400      -0.56768200
C       -0.59297000       0.76219700       0.17152500
C        0.88036100       0.81467600       0.17882700
C        2.08581000       0.89471300       0.20352600
H       -1.23556800      -2.37142500      -0.65536500
H       -1.11255600      -1.71287000       1.00408600
H        0.33260600      -1.75995000      -0.04815200
H       -0.96028200       0.72823300       1.22192600
H       -0.99422500       1.68001100      -0.28983800
H        3.14713400       0.94809100       0.20758900
