10
Properties=species:S:1:pos:R:3 pbc="F F F"
C       -1.62028800      -0.21338200      -0.23496100
C       -0.11905300      -0.26389000      -0.29022900
C        0.56457600      -1.04189800      -1.14579300
C        0.58278300       0.58755100       0.64632800
N        1.12570700       1.27238700       1.39954300
H       -2.05939200      -0.88239000      -0.97072100
H       -1.98020000       0.79795700      -0.42624100
H       -1.98041800      -0.49952100       0.75365600
H        0.04490400      -1.68113300      -1.84895200
H        1.64704400      -1.05190400      -1.15661700
