9
Properties=species:S:1:pos:R:3 pbc="F F F"
O       -2.03663100       0.03834400       0.01271900
C       -0.82305500      -0.00425200       0.00515500
C        0.16035800       1.17656400      -0.00129600
N        1.38229900       0.74911700      -0.00884300
C        1.34299700      -0.69878400      -0.00822800
C        0.08888400      -1.19223100      -0.00024200
H       -0.07578300       2.24355700      -0.00008100
H        2.28160100      -1.24722200      -0.01397000
H       -0.20397100      -2.23469200       0.00186500
