14
Properties=species:S:1:pos:R:3 pbc="F F F"
C       -1.38580300      -0.77227200      -1.22117900
C        0.12651700      -0.69287100      -1.02133400
C        0.53013900       0.43188700      -0.09104400
C        1.19643900       1.52039200      -0.51114900
C        0.17154300       0.30106000       1.35659300
O       -0.38226100      -0.66070100       1.83748800
H       -1.63614100      -1.59247300      -1.89079000
H       -1.77197700       0.14768100      -1.65549600
H       -1.89169600      -0.93940400      -0.27376600
H        0.62311700      -0.56551800      -1.98843300
H        0.47858400      -1.64035300      -0.59827000
H        1.48132100       1.65090000      -1.54885800
H        1.47194200       2.30693500       0.18517800
H        0.46992900       1.18866600       1.99920300
