13
Properties=species:S:1:pos:R:3 pbc="F F F"
C       -1.90126200      -0.35798400      -0.44424500
C       -0.38864100      -0.30412400      -0.64333700
N        0.38987500      -1.36845600       0.08429700
C        1.28156300      -0.37235500       0.74348900
C        0.42684400       0.74351200       0.13836600
O        0.40718500       1.94736400       0.23340800
H       -2.32151000      -1.24186200      -0.92141500
H       -2.37194600       0.52118900      -0.87895200
H       -2.15376600      -0.39387700       0.61294600
H       -0.15104500      -0.28555000      -1.72415000
H        0.88430600      -2.00993000      -0.54014200
H        2.32272000      -0.39482100       0.38804100
H        1.29361100      -0.44917600       1.84068900
