14
Properties=species:S:1:pos:R:3 pbc="F F F"
C        1.79090500      -1.12467900       0.87177200
C        0.74373000      -0.63463600       1.53630800
C       -0.33987900       0.23785300       0.96422800
C       -0.14141100       0.63604300      -0.49053100
C       -0.73166700      -0.13890600      -1.60223900
O       -1.30706300       1.09132400      -1.17750700
H        2.52205800      -1.75016800       1.36836400
H        1.95091500      -0.91988800      -0.18039600
H        0.63290900      -0.87484400       2.59451800
H       -0.42223100       1.14331700       1.58171700
H       -1.30447800      -0.27441200       1.07246600
H        0.75882200       1.23739200      -0.70046300
H       -1.33748000      -1.02968300      -1.39368100
H       -0.27407400      -0.11636300      -2.59970600
