19
Properties=species:S:1:pos:R:3 pbc="F F F"
C       -1.96362600      -0.08547500      -0.03470400
C       -0.99670500      -1.29896800       0.22067800
C        0.32735400      -0.69484900      -0.25005600
C        0.25692800       0.72023200       0.26045700
C       -1.09737700       1.20799400      -0.25690000
C        1.76698100       0.84906600      -0.05506100
C        1.83104000      -0.69261300       0.11782700
H       -2.64150000       0.04774700       0.81316300
H       -2.59600500      -0.27588800      -0.90647800
H       -1.30773000      -2.18869400      -0.33472000
H       -0.98023700      -1.55930400       1.28337000
H        0.28695200      -0.65476100      -1.35004700
H        0.18201500       0.67513500       1.35844400
H       -1.06645800       1.47130300      -1.31853300
H       -1.50374700       2.06604500       0.28663900
H        2.36268400       1.46031000       0.62948500
H        1.98084000       1.15266700      -1.08259000
H        2.03472000      -0.97807600       1.15259700
H        2.50089000      -1.24881000      -0.54477000
