14
Properties=species:S:1:pos:R:3 pbc="F F F"
C       -1.69422300       0.86632000      -1.66209800
C       -0.17503500       0.84481100      -1.50870400
O        0.27194500      -0.09346300      -0.52507300
C        0.01869400       0.28132600       0.81219300
C        0.68375800      -0.69929500       1.77214900
O        1.34324100      -1.65083400       1.45277000
H       -1.98298200       1.52619500      -2.47773700
H       -2.18449500       1.22192500      -0.75747700
H       -2.07590400      -0.12833400      -1.88052000
H        0.20057300       1.85805500      -1.25479800
H        0.29658600       0.54495800      -2.45654400
H       -1.07275300       0.31548900       1.03242900
H        0.39712700       1.30834100       1.02056100
H        0.50120300      -0.45122600       2.87126900
