15
Properties=species:S:1:pos:R:3 pbc="F F F"
C       -1.85063000       0.27198000      -0.46926100
C       -0.38652500      -0.01071700      -0.16756400
C       -0.01286700      -0.04674900       1.32005200
O        1.38819600      -0.07101300       1.48264400
C        0.41094300      -0.82261400      -1.13867100
N        0.62691800       0.62540400      -1.03423700
H       -2.49364200      -0.49745700      -0.04168200
H       -2.03365000       0.30435600      -1.54127600
H       -2.15961500       1.22774900      -0.04556600
H       -0.44289300      -0.93793400       1.81033700
H       -0.44998900       0.83860300       1.83498600
H        1.77614400       0.41423100       0.73524600
H       -0.07344500      -1.18444000      -2.04743400
H        1.23528000      -1.43766500      -0.77654400
H        0.18229300       1.11142900      -1.81690100
