6
Properties=species:S:1:pos:R:3 pbc="F F F"
O       -1.41779800       0.88021200      -0.19611400
C       -0.21637400       0.79045000      -0.17615000
C        0.51987800      -0.44613400       0.09929200
C        1.21515400      -1.41468600       0.31529500
H        0.45612900       1.67935200      -0.37412900
H        1.77430200      -2.29883200       0.51242300
