18
Properties=species:S:1:pos:R:3 pbc="F F F"
C       -2.43769400       0.49702400      -0.49522100
O       -1.02832300       0.44041400      -0.45877300
C       -0.52418800      -0.47970900       0.50348100
C        1.01299300      -0.47371900       0.48237300
C        1.54908500      -0.91431200      -0.88487100
C        1.56553400       0.90042700       0.87930300
H       -2.73282500       1.22864600      -1.25403600
H       -2.85696500       0.80556000       0.48091000
H       -2.87761000      -0.48458900      -0.75409400
H       -0.91174000      -1.50068400       0.28864800
H       -0.89879100      -0.20894000       1.51583700
H        1.34995200      -1.20760600       1.23443300
H        1.20419300      -0.24188300      -1.66630900
H        1.20728700      -1.91843400      -1.13010000
H        2.63750100      -0.91521100      -0.89378500
H        1.23904900       1.66238000       0.17594000
H        2.65391300       0.89331200       0.89145900
H        1.21825000       1.18587600       1.87089900
