10
Properties=species:S:1:pos:R:3 pbc="F F F"
O       -1.11470900       0.28793800       0.85067600
C        0.29500800       0.31273800       0.84256300
C        0.84746500      -0.15195800      -0.47354400
C        0.10431700      -0.55066800      -1.50477900
H       -1.44555400       0.60235500       1.70101900
H        0.69865700      -0.32460600       1.66410400
H        0.66512600       1.34127700       1.06283100
H        1.93545600      -0.14997700      -0.55141900
H       -0.97625500      -0.55549200      -1.43519100
H        0.55949700      -0.87773500      -2.43219100
