21
Properties=species:S:1:pos:R:3 pbc="F F F"
C        0.22096400      -2.62635700      -0.11269200
C       -0.11594300      -1.18796000      -0.48790700
C        0.38953900      -0.15366900       0.54347700
C       -0.23677700       1.24263600       0.37412700
C       -1.70359400       1.45365600       0.15292700
C       -0.72822300       1.77530100      -0.93676100
C        1.92196100      -0.03829000       0.51596400
H       -0.16995800      -3.31835200      -0.85592300
H       -0.21200500      -2.89127800       0.85008700
H        1.29567800      -2.78217200      -0.04774500
H       -1.20221400      -1.09888700      -0.58910600
H        0.30646600      -0.96185600      -1.47239200
H        0.10423400      -0.51643600       1.54685900
H        0.23448100       1.98703600       1.01997900
H       -2.18108300       2.28120000       0.66842700
H       -2.34163000       0.58573800       0.02046800
H       -0.54652100       2.82146100      -1.16300700
H       -0.70876800       1.12239800      -1.80291000
H        2.27096600       0.31211200      -0.45355100
H        2.39310100      -0.99859400       0.71405300
H        2.26968500       0.66572400       1.26995900
