16
Properties=species:S:1:pos:R:3 pbc="F F F"
N       -1.66854200      -0.40903500      -0.60962700
C       -0.23983600      -0.22561100      -0.86741100
C        0.66596100      -1.34558800      -0.31953000
N        1.25320700      -0.41738000       0.67102800
C        0.50654500       0.73871100       0.09753100
C       -0.31032200       1.53022300       1.11491500
H       -2.03376800      -1.19133000      -1.14754600
H       -2.19119700       0.42785500      -0.85683700
H       -0.04489900       0.00662600      -1.94157300
H        1.39417100      -1.74107300      -1.04715800
H        0.14693500      -2.20100600       0.13948200
H        2.26952800      -0.32824400       0.60711000
H        1.17701800       1.43014500      -0.45380700
H       -0.99291500       0.87883600       1.65412200
H       -0.89545100       2.30585400       0.62284300
H        0.34382900       2.01083700       1.84053200
