21
Properties=species:S:1:pos:R:3 pbc="F F F"
C       -2.02224500       0.90715600      -1.28165800
C       -1.95234000      -0.33085800      -0.39769100
C       -1.08512900      -0.13017600       0.85937100
C        0.37982100       0.13139200       0.56219900
C        0.92054900       1.33755900       0.78303300
C        1.16084400      -1.05441200       0.03291200
C        2.63912800      -0.81076300      -0.23258700
H       -2.64029700       0.72168800      -2.15783900
H       -1.03158300       1.19983400      -1.62137800
H       -2.45021100       1.74862900      -0.74073000
H       -1.56772900      -1.17565900      -0.97922900
H       -2.96341400      -0.61084800      -0.08231700
H       -1.16940800      -1.02823300       1.48441200
H       -1.49218800       0.70058800       1.44358900
H        0.31979200       2.15259100       1.16756700
H        1.96420100       1.54301700       0.58411000
H        0.68068200      -1.40610000      -0.88968800
H        1.05202400      -1.88402800       0.74439000
H        2.78404400      -0.03550700      -0.98149800
H        3.11199500      -1.72017400      -0.59784800
H        3.15832200      -0.50519000       0.67298600
