13
Properties=species:S:1:pos:R:3 pbc="F F F"
C       -1.77123700      -0.53267300       0.53238200
C       -0.24923100      -0.50314600       0.50783900
C        0.30597700       0.46710300      -0.53944800
N        1.77119500       0.46570500      -0.52902800
H       -2.13519200      -1.22633900       1.28743900
H       -2.17321500      -0.84508700      -0.42977700
H       -2.17943300       0.45112400       0.75785300
H        0.13567300      -1.50803700       0.30944200
H        0.12775700      -0.22109400       1.49730600
H       -0.10805500       1.48190700      -0.35767900
H       -0.03875100       0.17167400      -1.54096400
H        2.12372100       0.72567100       0.38871800
H        2.13607200       1.12254300      -1.21378000
