15
Properties=species:S:1:pos:R:3 pbc="F F F"
C       -0.91046900      -2.27584300      -0.24043400
C       -1.06513600      -1.11300900      -0.52870400
C       -1.33129700       0.27291200      -0.91395900
C       -0.77609000       1.31843600       0.06711500
C        0.75480100       1.45769800       0.03699200
C        1.47369900       0.32137500       0.61332200
C        2.12070000      -0.56981700       1.10978800
H       -0.72276700      -3.28416400       0.03483500
H       -2.41876700       0.40532300      -0.99693300
H       -0.92102300       0.45172700      -1.91705200
H       -1.10620800       1.08471900       1.08274500
H       -1.21190600       2.29104000      -0.18856700
H        1.04078800       2.36286500       0.59009800
H        1.09286300       1.60844000      -0.99731500
H        2.64977200      -1.39046500       1.52746300
