19
Properties=species:S:1:pos:R:3 pbc="F F F"
C       -2.24264900      -2.06471900      -0.62797800
C       -1.69155800      -0.85069400      -0.62225300
C       -1.02223700      -0.22374500       0.57465300
C        0.39868800       0.24016100       0.28334700
C        0.71198600       1.54650700       0.36830900
C        2.04829300       2.18012400       0.13002400
C        1.36366200      -0.85499500      -0.08087700
H       -2.72413700      -2.45908200      -1.51456300
H       -2.22893700      -2.69714300       0.25229900
H       -1.72215600      -0.24418700      -1.52776700
H       -1.01430800      -0.94292200       1.40302200
H       -1.62005100       0.63560800       0.90544400
H       -0.08219400       2.24234200       0.64159400
H        2.81536200       1.45768700      -0.13499900
H        2.38323500       2.71568200       1.02029300
H        1.98628100       2.91602500      -0.67393100
H        1.01747900      -1.38748400      -0.96780700
H        1.42767300      -1.59087700       0.72254100
H        2.36464600      -0.48148000      -0.27747100
