15
Properties=species:S:1:pos:R:3 pbc="F F F"
C       -1.96595900       0.64310900      -1.00478100
C       -0.90451000       0.66985200       0.09228800
C       -0.26885700      -0.67784300       0.31402100
C        1.03945000      -0.94484800       0.42491000
C        2.17114700       0.03098600       0.33970900
H       -2.43424400       1.61950500      -1.11221300
H       -2.74573900      -0.08097100      -0.77644600
H       -1.53075900       0.37186200      -1.96408100
H       -1.37563300       0.99778600       1.02978500
H       -0.14618700       1.42091800      -0.14676800
H       -0.96781400      -1.51014000       0.40261700
H        1.33525600      -1.97938000       0.60179600
H        1.84462900       1.01915100       0.02627700
H        2.92626400      -0.31874900      -0.36531700
H        2.66659900       0.13248100       1.30746800
