17
Properties=species:S:1:pos:R:3 pbc="F F F"
C       -0.99228300      -1.29177300      -2.29290500
C       -1.06453600      -0.62679100      -0.92449500
C        0.30796700      -0.51855100      -0.24442200
C        0.22742900       0.15472100       1.11903600
C        1.39062500       0.90446100       1.67091900
N        0.20440800       1.61912200       1.19484700
H       -1.98011900      -1.35791800      -2.74388000
H       -0.58964500      -2.30010600      -2.21810800
H       -0.35223200      -0.72836600      -2.96927800
H       -1.74449800      -1.19207700      -0.27820000
H       -1.49813500       0.37319300      -1.02534000
H        0.99515300       0.03988100      -0.88948200
H        0.73694600      -1.52243300      -0.13443600
H       -0.44602800      -0.33336800       1.83408700
H        2.29790900       0.98605100       1.06878300
H        1.55461700       0.94053200       2.74901500
H        0.37996400       2.02835600       0.27410900
