15
Properties=species:S:1:pos:R:3 pbc="F F F"
C       -1.36149900       1.08124400       1.04844900
C        0.11535500       0.75250900       1.06227200
O        0.92913100       1.33787800       0.03729400
C        0.79355800      -0.08684100       0.04131700
C        0.09723400      -0.71106600      -1.16013900
N       -0.30042000      -2.09264300      -0.86538400
H       -1.54150600       2.05118900       1.51068100
H       -1.92978300       0.33811100       1.60786600
H       -1.75313900       1.11690300       0.03507900
H        0.58334700       0.79783000       2.06141000
H        1.71491400      -0.61043700       0.35557800
H        0.77519300      -0.65825800      -2.03779400
H       -0.79671500      -0.13352100      -1.42621200
H        0.51098900      -2.65950200      -0.62965000
H       -0.76129300      -2.51192000      -1.66901300
