15
Properties=species:S:1:pos:R:3 pbc="F F F"
N       -0.01786500       0.29384400      -2.06471500
C       -0.54746200       0.12414400      -0.70159600
C       -0.11089300      -1.19816500       0.01395000
C        0.32860500      -0.79062500       1.43319200
C        0.37850300       0.71269500       1.39604100
C       -0.07959300       1.21021700       0.24433000
H       -0.34613900      -0.45278600      -2.67216100
H        0.99919500       0.27934900      -2.05698600
H       -1.65337700       0.15703900      -0.77919300
H        0.72047200      -1.66111100      -0.52571400
H       -0.91760200      -1.93561200       0.03376200
H        1.29701100      -1.22558800       1.70954900
H       -0.38443500      -1.13777700       2.19275500
H        0.73821900       1.30339900       2.23388100
H       -0.14325400       2.26658500       0.00161200
