21
Properties=species:S:1:pos:R:3 pbc="F F F"
C        1.16255100       2.02889300      -1.04600400
C        1.34141700       0.58059800      -0.60499100
C        0.05079700      -0.24447000      -0.69589600
C        0.15176800      -1.74059500      -0.33656700
C       -1.09096800      -1.61526000       0.55143800
C       -1.06691700      -0.08030700       0.37953700
C       -0.72485100       0.69582100       1.64690300
H        2.10964000       2.56397500      -1.01216700
H        0.45886400       2.55422700      -0.40372900
H        0.78421600       2.08268400      -2.06516700
H        1.73562400       0.55130000       0.41581700
H        2.10115900       0.10601700      -1.23708300
H       -0.37706600      -0.11656300      -1.70146000
H        1.05507800      -1.98894300       0.22614200
H        0.07364100      -2.43947400      -1.17411800
H       -0.97255600      -1.97615500       1.57623900
H       -1.98044600      -2.08713400       0.12664500
H       -2.00091600       0.32288900      -0.04052200
H        0.18162600       0.31647600       2.11406800
H       -1.53255400       0.60862900       2.37240100
H       -0.57909900       1.75398600       1.43641100
