16
Properties=species:S:1:pos:R:3 pbc="F F F"
C       -0.69603100       0.49991600       2.21143500
O       -1.18739900      -0.03525400       0.99146500
C       -0.79727500       0.70478900      -0.15699600
O        0.60704500       0.64444000      -0.35406800
C        1.11974200      -0.67362500      -0.62635300
C        0.92518300      -1.07451000      -2.08550500
H       -1.02069400      -0.15637300       3.02455500
H       -1.09452600       1.51503800       2.38769900
H        0.40369200       0.55619400       2.20937200
H       -1.06632700       1.78117500      -0.04695300
H       -1.35132200       0.27997600      -1.02564200
H        0.63680300      -1.40305400       0.04803100
H        2.19292500      -0.64851600      -0.37936900
H       -0.13027600      -1.12006300      -2.34774900
H        1.35791500      -2.05567900      -2.27187400
H        1.40492500      -0.36161200      -2.75272900
