15
Properties=species:S:1:pos:R:3 pbc="F F F"
C        1.34551500       0.40110600      -0.92293900
C        0.78725200      -0.39666000       0.26984500
C       -0.74882000      -0.41721000       0.30951800
C       -1.59687400      -0.54583700      -0.89388400
O       -1.44475900       0.70645600      -0.23552300
N        1.27677600       0.12420000       1.56439000
H        2.43072800       0.46011300      -0.86430300
H        0.94734700       1.41261100      -0.92822200
H        1.08550500      -0.06876000      -1.86950800
H        1.14098000      -1.44440200       0.18531900
H       -1.16978600      -0.76833200       1.26614700
H       -2.59776200      -0.99135700      -0.81803900
H       -1.14742400      -0.60463300      -1.89342300
H        0.91535900       1.06345500       1.71730300
H        2.29325000       0.17186000       1.56293500
