17
Properties=species:S:1:pos:R:3 pbc="F F F"
C        1.17148500       1.46400800      -0.14091000
C        0.58912200       0.04878500      -0.33496700
C       -0.94319000       0.07522900      -0.31912300
C       -1.66181800      -0.32241700       0.73790600
C       -1.59673600       0.59294500      -1.57161200
C        1.15719500      -0.88236100       0.65509800
C        1.66095900      -1.64631800       1.44390900
H        2.25724900       1.44284900      -0.20284500
H        0.89545300       1.86763500       0.83010100
H        0.79950100       2.14023600      -0.90812700
H        0.90523200      -0.30685600      -1.33334900
H       -2.74443500      -0.28347400       0.72157700
H       -1.18284900      -0.69969600       1.63255400
H       -2.67864600       0.61811400      -1.47106300
H       -1.34747800      -0.03632300      -2.42746700
H       -1.25141900       1.60023000      -1.80830000
H        2.08528300      -2.32194800       2.14512000
