14
Properties=species:S:1:pos:R:3 pbc="F F F"
O        0.91110300      -1.16317100       0.89128300
C        0.38632100       0.07477600       0.41276400
C       -1.11990200       0.07884300       0.52176800
C       -1.84865900      -0.95065500       0.95057000
C        0.87282500       0.30773700      -1.04713400
O        0.52621800       1.60033400      -1.51608600
H        1.87698600      -1.13179600       0.89298800
H        0.78672300       0.90537900       1.04273900
H       -1.60932600       1.00858600       0.22647800
H       -1.37202900      -1.87490400       1.25201100
H       -2.92856500      -0.88692500       1.01412200
H        0.46182500      -0.46814100      -1.72050200
H        1.97079300       0.22798500      -1.08526200
H       -0.42848400       1.65829800      -1.65196400
