15
Properties=species:S:1:pos:R:3 pbc="F F F"
N       -1.58833900       0.17410500      -1.30418900
C       -0.19031500       0.12313900      -0.84235500
C        0.13658000      -1.19289500      -0.08903900
C        0.92959800      -0.78184800       1.16687900
C        0.76198900       0.71076000       1.24019000
C        0.13949600       1.20414700       0.16612700
H       -1.75897500      -0.54303200      -2.00497600
H       -1.79571300       1.08200700      -1.71297900
H        0.50245800       0.23205300      -1.71696100
H        0.69660400      -1.89361700      -0.71492800
H       -0.79014800      -1.69724100       0.19558400
H        1.99137200      -1.05118600       1.08348500
H        0.56366300      -1.28176200       2.07193400
H        1.12662300       1.29942100       2.07754300
H       -0.08159400       2.25480400      -0.00019400
