14
Properties=species:S:1:pos:R:3 pbc="F F F"
C       -2.48343500      -0.68773300       0.33198900
C       -0.96525600      -0.75669800       0.42945300
C       -0.28170600      -0.14702600      -0.79345600
O        1.15933900      -0.31268800      -0.70965200
C        1.81823700       0.58048500       0.05822000
O        1.28312900       1.49454900       0.65872100
H       -2.94632100      -1.11858800       1.21659100
H       -2.84725700      -1.23445200      -0.53636800
H       -2.82335600       0.34219000       0.24349200
H       -0.64894900      -1.79926400       0.53762000
H       -0.62752500      -0.23077800       1.32666000
H       -0.50449200       0.92669200      -0.88390700
H       -0.59462200      -0.65076100      -1.71964000
H        2.92573100       0.37590400       0.06577300
