19
Properties=species:S:1:pos:R:3 pbc="F F F"
C       -2.44441300      -1.28959000       0.99669400
C       -1.60828000      -0.57932500       0.23872500
C       -1.00489000       0.73581700       0.64510100
C        0.53526400       0.69636500       0.77383000
C        1.24469400       0.35745700      -0.52430100
C        1.43619100       1.27943000      -1.47852500
C        1.73291800      -1.05570200      -0.68065200
H       -2.85808900      -2.22872900       0.65001500
H       -2.73851800      -0.95193800       1.98390400
H       -1.33515200      -0.95016900      -0.74919900
H       -1.42954900       1.06006800       1.60082300
H       -1.27248700       1.49713500      -0.09851000
H        0.81207000      -0.02764400       1.54591600
H        0.86669000       1.67902300       1.12668800
H        1.08917400       2.29763200      -1.35283400
H        1.94171100       1.03318700      -2.40390200
H        0.91420000      -1.76632100      -0.56180600
H        2.47065500      -1.29346600       0.08754600
H        2.19039100      -1.21548700      -1.65387500
