14
Properties=species:S:1:pos:R:3 pbc="F F F"
C       -1.78287900      -1.38625100       0.41621600
C       -0.26522600      -1.30083800       0.51769100
C        0.37777500      -0.65691100      -0.71096400
O       -0.05919100       0.72019600      -0.86751200
C        0.56870500       1.63165000      -0.09668200
O        1.46142400       1.36757900       0.68868200
H       -2.20686800      -1.82838800       1.31499200
H       -2.08555900      -1.99571100      -0.43345700
H       -2.21833400      -0.39783400       0.28849100
H        0.15480900      -2.30470500       0.64313400
H        0.01723400      -0.73067700       1.40703100
H        0.08672800      -1.17604000      -1.63571500
H        1.47535900      -0.66322100      -0.63177200
H        0.16851400       2.66846800      -0.27963600
