16
Properties=species:S:1:pos:R:3 pbc="F F F"
C       -1.07054600      -0.39992100       1.70960600
C       -1.43962300      -0.48845600       0.23437600
C       -0.86568100       0.65612600      -0.61282000
C        0.64124900       0.63880000      -0.85805200
C        1.47658600      -0.58018500      -0.89514600
O        1.52501900       0.31224700       0.21374100
H       -1.49781100      -1.23492000       2.26170700
H       -1.45012700       0.52133500       2.14721900
H        0.00792500      -0.41422900       1.84122900
H       -2.53099200      -0.47276100       0.13450000
H       -1.11367300      -1.45201900      -0.17270900
H       -1.13040600       1.61338400      -0.14830500
H       -1.36104700       0.65523300      -1.59314900
H        0.99193000       1.49793800      -1.45901500
H        2.38708800      -0.60478600      -1.50894700
H        1.04504800      -1.56534100      -0.68024000
