17
Properties=species:S:1:pos:R:3 pbc="F F F"
C       -2.54353700      -1.18389500      -1.16559400
C       -1.89308900      -0.93193400      -0.02941000
C       -1.50097900       0.44220800       0.44197800
C       -0.01867200       0.54410500       0.83158000
C        0.91898100       0.31201400      -0.36334600
C        2.33258500       0.39356700       0.00542800
C        3.50030300       0.45960300       0.30809300
H       -2.81442000      -2.19452200      -1.44517700
H       -2.82447200      -0.38792000      -1.84555700
H       -1.62556500      -1.75851800       0.62972100
H       -2.10658000       0.69871500       1.32174500
H       -1.73956100       1.18389000      -0.32706500
H        0.20517400      -0.18555400       1.61614100
H        0.17479800       1.53273500       1.25950700
H        0.71051000       1.05123800      -1.14798100
H        0.71916800      -0.67255100      -0.80513800
H        4.52740500       0.51848200       0.57144000
