13
Properties=species:S:1:pos:R:3 pbc="F F F"
C        0.89880100       0.82693900      -0.70233600
C        1.55890400      -0.55286500      -0.61379300
N        0.23582800      -1.21447300      -0.55515200
C       -0.45326300       0.10693100      -0.48829900
C       -1.13014200       0.37464000       0.78808600
C       -1.68985100       0.57613600       1.84060600
H        0.99243600       1.31848900      -1.67379300
H        1.18357800       1.53735300       0.07596600
H        2.16806500      -0.70547200       0.29020700
H        2.16240600      -0.85786800      -1.48339800
H        0.10061000      -1.78482500       0.28299900
H       -1.18053600       0.24420700      -1.31464100
H       -2.18405100       0.75873500       2.76314300
