12
Properties=species:S:1:pos:R:3 pbc="F F F"
C       -0.39935700      -1.58549100      -0.88519300
O       -1.07609900      -0.50809000      -0.25337400
C       -0.38297900       0.52433400       0.29659500
C       -1.07341800       1.53999900       0.87650600
C        1.11617400       0.57803100       0.28969400
O        1.86774000      -0.25914300      -0.15883700
H       -1.17077100      -2.26275300      -1.26705900
H        0.23372500      -2.13339300      -0.17465500
H        0.21372900      -1.23632300      -1.72649000
H       -2.15424000       1.53739000       0.90864900
H       -0.54242100       2.37135300       1.32059600
H        1.52433100       1.52034400       0.77103000
