15
Properties=species:S:1:pos:R:3 pbc="F F F"
N       -0.06624400      -1.33394800       1.24104700
C       -0.41150900       0.09031500       1.22191500
C        0.21533400       0.82024400       0.01438800
C       -0.23997400       0.33969000      -1.35141200
C       -1.29296200      -0.43538800      -1.60918700
O        1.64962900       0.74903500       0.08051300
H       -0.50209600      -1.79347500       2.03673400
H        0.94114100      -1.45126500       1.32104300
H       -0.08392500       0.60405100       2.14810800
H       -1.50541600       0.18857200       1.18322900
H       -0.03382500       1.89882200       0.10153500
H        0.37048100       0.69619000      -2.18210000
H       -1.92632900      -0.82472800      -0.82132800
H       -1.54523600      -0.71299400      -2.62604800
H        1.92654900      -0.14898700      -0.14683400
