17
Properties=species:S:1:pos:R:3 pbc="F F F"
C        0.73635800       1.24600000      -0.21756200
C       -0.72580500       1.25429600       0.23715300
C       -1.44796000      -0.01897600      -0.21233100
C       -0.67399500      -1.27419900       0.22899300
N        0.72961600      -1.26098800      -0.22318900
C        1.44153500      -0.04921200       0.22354400
H        1.26274200       2.11726600       0.18812000
H        0.78073300       1.33210400      -1.30938300
H       -1.23975900       2.14015200      -0.15436500
H       -0.76582600       1.32788300       1.32997400
H       -1.54835100      -0.01705600      -1.30383600
H       -2.46426300      -0.04094400       0.19680500
H       -1.15836000      -2.17825400      -0.16731300
H       -0.69074400      -1.35349500       1.32632000
H        0.74746000      -1.29636900      -1.24645600
H        2.46508400      -0.07994800      -0.17692000
H        1.52317300      -0.07188100       1.32059400
