14
Properties=species:S:1:pos:R:3 pbc="F F F"
C       -0.59112100       0.08852400       1.78920400
C        0.88147500       0.12172900       1.39490800
O        1.10011700       0.62960200       0.07204700
C        0.77978600      -0.25886100      -0.99285800
C       -0.65202000      -0.26870800      -1.34620300
C       -1.80412500      -0.29216800      -1.71131600
H       -0.69519700      -0.19670400       2.83475500
H       -1.14859200      -0.62639100       1.18854700
H       -1.04798000       1.06637100       1.65730300
H        1.32853400      -0.89076400       1.48115000
H        1.44057100       0.78671800       2.07221100
H        1.10627600      -1.29222100      -0.74574900
H        1.36030200       0.06856200      -1.87394400
H       -2.82882100      -0.29548500      -1.99305600
