15
Properties=species:S:1:pos:R:3 pbc="F F F"
C       -1.91220300      -0.63821400       1.32966400
C       -0.69453900       0.27466600       1.20146900
C       -0.12812000       0.29993000      -0.19417500
C        1.15689700       0.06631900      -0.48681800
C        1.72657900       0.10567600      -1.86995400
H       -2.30755300      -0.61430600       2.34320100
H       -1.65579800      -1.66853000       1.09358300
H       -2.70479000      -0.32873700       0.65128400
H        0.07887300      -0.03610200       1.91132400
H       -0.98748200       1.29414300       1.48938300
H       -0.82746800       0.53125100      -0.99795600
H        1.85550700      -0.16950300       0.31639600
H        0.96452200       0.34083800      -2.60950500
H        2.17500400      -0.85359800      -2.13455300
H        2.51750500       0.85428000      -1.94427000
