15
Properties=species:S:1:pos:R:3 pbc="F F F"
C       -2.66065700      -0.96584000      -0.52745700
C       -1.17817000      -0.62652800      -0.55848600
C       -0.72231200       0.17816500       0.63970600
N        0.49289600       0.59567800       0.82558700
O        1.35526300       0.23090100      -0.19258800
C        2.68099100       0.71608600       0.05686700
H       -2.94675000      -1.54023700      -1.40619000
H       -3.26986300      -0.06428900      -0.50560000
H       -2.91153100      -1.55530500       0.35246700
H       -0.94019600      -0.06962400      -1.47353900
H       -0.58397200      -1.54729200      -0.61741700
H       -1.44922900       0.43761500       1.41615100
H        3.30600300       0.39456900      -0.78011400
H        3.08683200       0.30195400       0.99177400
H        2.69722500       1.81435300       0.12028400
