19
Properties=species:S:1:pos:R:3 pbc="F F F"
C       -0.24307500      -2.30102400      -1.12667900
C       -0.53501400      -1.35004000       0.02764400
C       -0.00768500       0.08756300      -0.19206700
C       -0.56564000       1.02411700       0.90319700
N       -0.33340500       2.43509400       0.58497600
C        1.52579200       0.12763100      -0.23658300
H       -0.68486500      -3.27764200      -0.93928100
H        0.82600100      -2.44319100      -1.26781600
H       -0.65445100      -1.92172900      -2.06008200
H       -0.11116200      -1.75727100       0.95230000
H       -1.61912800      -1.30610000       0.18289100
H       -0.38542000       0.44418500      -1.16244400
H       -0.12982800       0.74361500       1.88612900
H       -1.65087400       0.86721800       0.99443400
H        0.66093500       2.62827700       0.49891100
H       -0.71589300       3.03203800       1.31353800
H        1.95384300      -0.21209700       0.70524200
H        1.88600700       1.13731900      -0.42305500
H        1.91240000      -0.50976600      -1.02867200
