16
Properties=species:S:1:pos:R:3 pbc="F F F"
N        0.77746600       1.01496200      -1.69681200
C       -0.34744700       0.07984700      -1.72291900
C       -0.33682500      -0.85149700      -0.50167200
C       -0.63711800      -0.13371400       0.80910300
C       -0.08075700      -0.64500100       2.09436800
N        0.42783000       0.59233600       1.50230800
H        0.73966100       1.64653000      -2.49220000
H        1.66309400       0.51625900      -1.71944000
H       -0.34719200      -0.53977200      -2.64646000
H       -1.28261500       0.65750700      -1.74149900
H        0.63575400      -1.35200200      -0.43318200
H       -1.08137200      -1.64278700      -0.65702600
H       -1.61093800       0.37079600       0.84054900
H        0.57523600      -1.51837700       2.07341900
H       -0.64258200      -0.52186100       3.02189200
H        1.32676900       0.43481200       1.04218800
