20
Properties=species:S:1:pos:R:3 pbc="F F F"
C       -2.85095400      -1.46758600      -0.09521800
C       -1.32789000      -1.43877100      -0.09379300
C       -0.76594600      -0.01513800      -0.00132000
C        0.76599900       0.01508200       0.00099400
C        1.32786800       1.43879700       0.09270500
C        2.85093000       1.46760300       0.09645400
H       -3.22066900      -2.48860900      -0.16143400
H       -3.25232700      -0.91038300      -0.93937000
H       -3.25179100      -1.02429600       0.81417100
H       -0.95307100      -1.92119000      -1.00302700
H       -0.95256900      -2.03494000       0.74504500
H       -1.14357300       0.46698300       0.90710400
H       -1.14322700       0.58034200      -0.83997300
H        1.14372900      -0.46756000      -0.90711100
H        1.14322200      -0.57988900       0.84003400
H        0.95167800       1.92227300       1.00081300
H        0.95384200       2.03401300      -0.74738400
H        3.25096100       0.91123700       0.94179400
H        3.22054600       2.48869100       0.16226300
H        3.25321100       1.02341200      -0.81185900
