16
Properties=species:S:1:pos:R:3 pbc="F F F"
C       -1.75045000      -0.13081800       1.03672400
C       -0.27071100       0.09074600       0.89211400
C        0.33839700       1.16746200       1.41101200
C        0.49619300      -0.94170400       0.09298300
C        0.37401800      -0.69886500      -1.42669100
O        0.94048900       0.54191300      -1.79477500
H       -2.22618000       0.68874200       1.56862000
H       -1.94938700      -1.05460500       1.58147400
H       -2.22504700      -0.23027000       0.05963700
H       -0.21672700       1.91260500       1.96723800
H        1.40759200       1.30900800       1.31153100
H        0.12154800      -1.94516900       0.32307400
H        1.55347700      -0.91716100       0.37105800
H       -0.69492800      -0.74332200      -1.73125800
H        0.90273800      -1.49022500      -1.98068700
H        0.67831300       1.21416700      -1.14935000
