21
Properties=species:S:1:pos:R:3 pbc="F F F"
C       -1.28004300      -2.38955200       1.02262000
C       -1.54264200      -0.89291300       1.15576300
C       -0.96327500      -0.08672500      -0.00062100
C       -0.67732700       1.37793300       0.17107000
C        0.45709700       0.40192500       0.04097600
C        1.31717900       0.38593000      -1.21707000
C        2.47696700       1.37451800      -1.15115900
H       -1.71660700      -2.93609100       1.85618400
H       -0.21260500      -2.59975700       1.00552300
H       -1.71069200      -2.78129800       0.10312300
H       -1.12232500      -0.52996900       2.09943500
H       -2.62472800      -0.72172100       1.21487000
H       -1.33671900      -0.38158600      -0.98329500
H       -0.85693200       1.82203300       1.14550500
H       -0.88168700       2.03679500      -0.66725600
H        1.00582300       0.19701200       0.96209300
H        0.69305400       0.61132000      -2.08808400
H        1.71487100      -0.62413300      -1.37629700
H        2.11566600       2.39360900      -1.03042800
H        3.07360700       1.33445200      -2.06037800
H        3.13155000       1.15263400      -0.31046600
