14
Properties=species:S:1:pos:R:3 pbc="F F F"
C       -1.56452100       0.27940800      -0.43396600
C       -0.02547900       0.14718100      -0.38559600
C        0.57891500       1.42785500       0.04601600
N        1.03085000       2.43522300       0.36793700
N        0.45594100      -0.93862200       0.49475600
C        0.14047100      -2.28667900       0.03043400
H       -1.86009500       1.09479000      -1.09006800
H       -1.96974900       0.47648600       0.55618800
H       -2.01370500      -0.63761400      -0.80808000
H        0.34330900      -0.05994200      -1.40783100
H        0.11089200      -0.79913900       1.44724700
H        0.56231800      -2.44752300      -0.96493900
H       -0.94227300      -2.49596900      -0.02529300
H        0.58545600      -3.01389500       0.71260100
