17
Properties=species:S:1:pos:R:3 pbc="F F F"
C       -1.00202900       1.38827400       1.64859100
N        0.32892900       1.00864500       1.17817300
C        0.34795900       0.47020200      -0.17985800
C        1.42608700      -0.49265300      -0.55642200
C       -0.00286600      -0.97441800      -0.45307300
C       -0.75799700      -1.36997300      -1.70440800
H       -0.92990600       1.79343600       2.66077500
H       -1.71610000       0.54581200       1.66953500
H       -1.42324600       2.16118400       1.00015700
H        0.75362600       0.34064800       1.82486600
H        0.05116100       1.20367800      -0.93645000
H        2.11872400      -0.81254100       0.21619800
H        1.86473500      -0.41383100      -1.54621900
H       -0.22230700      -1.58845700       0.42147200
H       -0.52157700      -0.70215400      -2.53034800
H       -1.83510100      -1.33143900      -1.54138200
H       -0.50943600      -2.38544400      -2.01480100
