19
Properties=species:S:1:pos:R:3 pbc="F F F"
C       -1.47795000      -1.85814600      -0.01898400
C        0.00337300      -1.51582200       0.07197100
C        0.26083600      -0.02599200       0.39459900
N       -0.28162600       0.81707900      -0.69690900
C       -0.33826500       2.24542300      -0.40651100
C        1.76493800       0.21979800       0.64789800
H       -1.62000800      -2.90276700      -0.28959900
H       -1.97119800      -1.24358800      -0.76852900
H       -1.97718500      -1.68704900       0.93303300
H        0.49606000      -1.77074600      -0.87291500
H        0.47645600      -2.13470900       0.84158400
H       -0.29162500       0.23405700       1.31584100
H        0.24591600       0.65197000      -1.55711300
H       -0.94248000       2.42292100       0.48715100
H       -0.80685600       2.76925100      -1.24407900
H        0.65096800       2.70846400      -0.23711200
H        2.35498200      -0.02870500      -0.23250600
H        2.12283200      -0.39179400       1.47364000
H        1.95592200       1.26158200       0.89513500
