16
Properties=species:S:1:pos:R:3 pbc="F F F"
O       -0.92449600      -0.02671800       2.10927500
C       -1.31200100       0.26158000       0.77671700
C       -0.74493100      -0.79529100      -0.16813500
C        0.79179800      -0.80435000      -0.19472000
C        1.39836600       0.44132800      -0.79753500
C        1.16151200       0.87852300      -2.03518200
H       -1.26250100       0.65482900       2.70358400
H       -0.95674700       1.27331100       0.48873200
H       -2.42178800       0.28331600       0.70219000
H       -1.13396400      -0.62245000      -1.17768500
H       -1.10123500      -1.78229100       0.14396200
H        1.12768000      -1.68233300      -0.76140100
H        1.16142200      -0.93246200       0.82525000
H        2.08866100       1.00204200      -0.16643500
H        0.48720500       0.35566500      -2.70376400
H        1.63877700       1.77336200      -2.41550300
