15
Properties=species:S:1:pos:R:3 pbc="F F F"
C       -2.04236400       0.47300100       0.00379100
C       -0.69473400       0.45434300       0.00066400
C        0.20401600       1.62004600      -0.00488300
C        1.48088200       1.16564700      -0.00731400
C        1.47184200      -0.30020900      -0.00332400
C        0.18523000      -0.73936000       0.00155500
C       -0.29314800      -2.15448800       0.00719200
H       -2.59254300       1.40765500       0.00256000
H       -2.62163900      -0.44417000       0.00751800
H       -0.11975400       2.65397900      -0.00675000
H        2.37853000       1.77458100      -0.01149700
H        2.35941400      -0.92330900      -0.00418300
H        0.54352400      -2.84949200       0.00550000
H       -0.91267300      -2.36885300      -0.86614400
H       -0.90519700      -2.36427700       0.88691000
