15
Properties=species:S:1:pos:R:3 pbc="F F F"
O       -1.93013000      -0.42122900      -0.32521400
C       -0.52920000      -0.33513200      -0.52817500
C        0.32205000      -1.45186600       0.12859500
C        1.18503300      -0.37913600       0.81250700
C        0.17675900       0.71676400       0.34844600
N        0.70568000       1.89048300      -0.34863200
H       -2.28985500      -1.16900600      -0.81998600
H       -0.30959500      -0.21645000      -1.61296700
H        0.85172200      -2.12547900      -0.55086200
H       -0.24641300      -2.05722900       0.83685500
H        2.17326100      -0.27423700       0.35821100
H        1.31608500      -0.49405300       1.89122700
H       -0.46902000       1.05391600       1.17131900
H        1.34076800       1.61684700      -1.09480200
H        1.20647700       2.49835600       0.29490800
