12
Properties=species:S:1:pos:R:3 pbc="F F F"
C       -1.73640600      -0.45572300       0.68182800
C       -0.20536200      -0.43852600       0.65584600
O        0.44858200      -1.00668400       1.50492200
C        0.54120400       0.33126100      -0.49524400
O        1.75455100       0.33802700      -0.50511200
C       -0.25738600       1.05935900      -1.58449900
H       -2.09211100      -1.02619700       1.53502000
H       -2.13217400      -0.90514300      -0.22821900
H       -2.13210200       0.55701600       0.74940700
H       -1.33240400       0.97127900      -1.45259900
H        0.00565300       0.65862600      -2.56164600
H        0.00577700       2.11544300      -1.58802200
