16
Properties=species:S:1:pos:R:3 pbc="F F F"
C       -1.98673800       0.45671400       0.44758000
C       -0.55754000       0.37031800       0.90806100
C       -0.09536300       1.12251600       1.91681900
C        0.33418900      -0.60849600       0.17464900
C        0.71295500      -0.12874900      -1.24148700
O        1.50018500      -1.09626300      -1.91314600
H       -2.55076100       1.17599400       1.03559700
H       -2.47737900      -0.51401400       0.52796800
H       -2.04249200       0.75305100      -0.60089200
H       -0.73919600       1.82223700       2.43480200
H        0.93409400       1.05090600       2.24524200
H       -0.17184000      -1.57689100       0.09175900
H        1.25102700      -0.77834000       0.75001100
H        1.26020400       0.83502600      -1.18166500
H       -0.18751400       0.04177900      -1.84926800
H        2.27735600      -1.31346600      -1.38212000
