14
Properties=species:S:1:pos:R:3 pbc="F F F"
C       -1.52463500      -1.49158200      -0.95709300
C       -0.28733100      -1.32020300      -0.44837700
N        0.26283000      -0.14208000       0.06190900
C       -0.44154500       1.05999400       0.10662300
N        0.01267500       2.18165200       0.56701300
C        1.62865000      -0.17196600       0.56829400
H       -1.81327200      -2.46711100      -1.31749600
H       -2.25119100      -0.69449900      -1.02444000
H        0.39646600      -2.17026800      -0.41090500
H       -1.46374500       1.01253400      -0.29060000
H        0.97376900       2.12602500       0.91484500
H        2.04087800      -1.17467900       0.46050200
H        1.66584700       0.10578100       1.62951700
H        2.27188000       0.52776500       0.01945000
