14
Properties=species:S:1:pos:R:3 pbc="F F F"
C       -1.54823300      -0.95003200       1.32310100
C       -0.02888100      -0.87410800       1.20192600
C        0.43225500       0.17759700       0.18068000
O        1.10312800       1.13912300       0.51865900
C        0.03994100      -0.03855800      -1.25398200
C        0.38465400       0.82523300      -2.21406600
H       -1.83661900      -1.70280900       2.05373900
H       -2.00820100      -1.21222800       0.37204400
H       -1.96050800       0.00404900       1.64311000
H        0.35973300      -1.85296600       0.89775000
H        0.41075300      -0.64153400       2.17424900
H       -0.53458500      -0.93167800      -1.49959200
H        0.95721200       1.71317100      -1.96509800
H        0.10878000       0.67022200      -3.25142700
