13
Properties=species:S:1:pos:R:3 pbc="F F F"
C       -0.86885700       0.35888200      -0.06620400
C       -1.32969200      -0.52595300       1.00487800
C       -1.71354600      -1.24600400       1.89574200
C        0.65362800       0.49123700      -0.10756300
C        1.34098800       1.01346600      -1.32319400
N        1.38221800      -0.41118200      -0.99786100
H       -1.32550700       1.34980900       0.07540500
H       -1.23099500      -0.01922400      -1.02935000
H       -2.04832400      -1.89316900       2.66838200
H        1.12562400       0.70500600       0.85915000
H        2.26406000       1.58432600      -1.20289800
H        0.75743300       1.27171200      -2.20830100
H        2.28706300      -0.66995300      -0.59930900
