12
Properties=species:S:1:pos:R:3 pbc="F F F"
C       -2.23063600      -0.19648400      -0.12646700
C       -0.73040000      -0.22750900      -0.12449700
C        0.01657800       0.77948700       0.42152000
C        1.44516200       0.75317900       0.41590600
N        2.60298600       0.72678200       0.39997200
N       -0.14857100      -1.35813100      -0.66968400
H       -2.60538200       0.69195600       0.37303100
H       -2.63808900      -1.07275300       0.37835700
H       -2.61935300      -0.20426900      -1.14592600
H       -0.46776800       1.63766800       0.87428800
H       -0.70534700      -1.94707100      -1.27384200
H        0.85080600      -1.33812000      -0.83670000
