18
Properties=species:S:1:pos:R:3 pbc="F F F"
C        1.83615200       1.68202400       0.88816400
C        1.42941900       0.27767100       0.45312400
C       -0.07835300       0.12227600       0.29689800
C       -0.74817100       0.49358900      -0.99486100
C       -0.64405800      -0.95006800      -0.59158200
C       -1.88191900      -1.71816200      -0.17984300
H        2.91623900       1.75742600       0.99772500
H        1.38334400       1.94205800       1.84314900
H        1.51974400       2.42358600       0.15758400
H        1.79756300      -0.44779300       1.18922300
H        1.92090800       0.03154600      -0.49398700
H       -0.64837800       0.34323000       1.20114100
H       -0.12244900       0.83764100      -1.81263400
H       -1.72368800       0.96694200      -0.94379400
H        0.08521700      -1.54154100      -1.14843300
H       -2.56968100      -1.08381900       0.37515200
H       -1.62466900      -2.56745200       0.45299600
H       -2.41257000      -2.10580300      -1.04952100
