8
Properties=species:S:1:pos:R:3 pbc="F F F"
O       -2.21230500       1.75976900       0.75079700
C       -1.11627900       1.38533500       1.08133000
C       -0.35874200       0.32705500       0.40664100
C        0.39558100      -0.48327800      -0.10555700
C        1.15818300      -1.56790000      -0.73088100
O        2.13139200      -1.41017900      -1.42277400
H       -0.56596300       1.82957500       1.96463200
H        0.74081000      -2.59356700      -0.49801900
