15
Properties=species:S:1:pos:R:3 pbc="F F F"
C       -0.51707700       1.08457200       1.60994900
C       -0.95761700       0.84356200       0.18182300
O       -0.13453500       1.38290900      -0.85828900
C       -0.24348900      -0.04392900      -0.77329200
C        1.03737400      -0.81543000      -0.44296800
N        0.78205800      -2.19621000      -0.00677000
H       -0.79954000       2.08612700       1.93181100
H        0.56065500       0.99238300       1.71684800
H       -0.99016600       0.37406200       2.28854600
H       -2.03621900       1.00311400       0.00651000
H       -0.84535600      -0.48110400      -1.59067800
H        1.68099100      -0.84842600      -1.33289800
H        1.60514800      -0.29517000       0.33781300
H        0.29960300      -2.72089400      -0.73237400
H        0.21161000      -2.21255000       0.83504600
