12
Properties=species:S:1:pos:R:3 pbc="F F F"
O        0.00243700      -2.07225700       0.15576300
C       -0.88766500      -1.10550000      -0.36585100
C       -0.37979500       0.29168200      -0.07926100
C       -1.20388300       1.35035700      -0.01675500
C        1.10092300       0.49519000       0.10520600
O        1.59829600       1.58606000       0.27548400
H       -0.34351600      -2.96034600      -0.00080700
H       -1.90339400      -1.24751800       0.05823400
H       -0.99164500      -1.24702500      -1.46612200
H       -2.27779200       1.25082400      -0.13845500
H       -0.79865100       2.34020600       0.16442900
H        1.73165500      -0.43693000       0.07271900
