17
Properties=species:S:1:pos:R:3 pbc="F F F"
C       -0.50090300       2.05870300      -0.49520800
C       -0.86043500       1.06194900       0.59701800
C       -0.24087500      -0.35167500       0.39745000
C       -0.69155100      -0.95721600      -0.86911400
C       -1.06578000      -1.46710300      -1.89860900
C        1.27645600      -0.31712200       0.47016000
C        1.97882300      -0.79248700       1.49760900
H       -0.99589600       3.01173000      -0.31930900
H       -0.80958700       1.69331300      -1.47196700
H        0.57116800       2.24078800      -0.52783100
H       -1.94897900       0.95620200       0.64889100
H       -0.53677900       1.44589200       1.56991900
H       -0.61139300      -0.98850600       1.22008400
H       -1.39295300      -1.91389300      -2.80505000
H        1.79440800       0.13550700      -0.37430800
H        1.49499200      -1.25466700       2.35090700
H        3.06061800      -0.73665500       1.51282500
