16
Properties=species:S:1:pos:R:3 pbc="F F F"
C       -2.61836600      -0.45150200      -0.56833900
N       -1.16074000      -0.50797900      -0.63830500
C       -0.49525400       0.18954300       0.23764300
N        0.88278900       0.21475100       0.27040900
C        1.67255500      -0.54335900      -0.68183400
C        1.59823000       0.99760000       1.25376300
H       -3.05586000      -1.07343000      -1.35533100
H       -3.00063500       0.57150900      -0.70234300
H       -3.00140000      -0.81796000       0.39583200
H       -0.97172700       0.81706100       1.02489200
H        0.99826500      -1.07606000      -1.35044500
H        2.32388400      -1.27016200      -0.17330200
H        2.32340100       0.11521000      -1.27664800
H        0.89186500       1.51544400       1.90426300
H        2.24746300       1.75050700       0.77972600
H        2.24741100       0.36678800       1.88122800
