14
Properties=species:S:1:pos:R:3 pbc="F F F"
C        0.21753100      -0.64639200       1.96863900
C        0.36951400      -0.73077700       0.43990600
C        0.57646700       0.65646200      -0.19050300
C        0.32173300       0.89082600      -1.62794200
O       -0.63419300       1.27951000      -0.64445000
O       -0.78544800      -1.31668800      -0.15161600
H        0.03787300      -1.63448800       2.38459400
H       -0.62017200      -0.00806100       2.24036900
H        1.11739200      -0.23989100       2.42793500
H        1.23651200      -1.38232400       0.20104500
H        1.25517100       1.34640100       0.33687600
H        0.00872500       0.05984000      -2.27063200
H        0.81255200       1.72355800      -2.14653400
H       -1.40239400      -0.58832400      -0.34572500
