17
Properties=species:S:1:pos:R:3 pbc="F F F"
C       -0.35267800      -2.35143600       0.17075300
N        0.05147000      -1.19949000       0.97429400
C        0.53477900      -0.07386700       0.18496100
C        0.53270200       1.28413500       0.82135500
C       -0.45075900       0.96429100      -0.27362700
C       -0.31072900       1.61772500      -1.63176100
H       -0.67769200      -3.16107500       0.82839200
H        0.45819100      -2.73980000      -0.47229500
H       -1.18847700      -2.08187300      -0.48030600
H        0.76066000      -1.48361200       1.65557100
H        1.37401300      -0.28964500      -0.50152600
H        1.35182400       1.95740600       0.58813900
H        0.14958800       1.37006600       1.83276000
H       -1.48007600       0.81682500       0.05397600
H        0.73554400       1.71075300      -1.91606700
H       -0.74726000       2.61652600      -1.63651300
H       -0.81649800       1.03577200      -2.40227400
