15
Properties=species:S:1:pos:R:3 pbc="F F F"
C       -1.86485000      -0.70002600       2.07334400
C       -0.34142400      -0.68062800       1.97426400
C        0.14339300      -0.38010100       0.62182700
C        0.55533100      -0.10543200      -0.48159900
C        1.04976100       0.17064000      -1.83916200
N        0.82064200       1.56302200      -2.23078100
H       -2.17731600      -0.92050200       3.09219400
H       -2.28981300      -1.45714000       1.41838600
H       -2.28686300       0.26167600       1.79112600
H        0.06184700      -1.65172000       2.29206800
H        0.06479800       0.06345800       2.67266400
H        0.56848700      -0.54654300      -2.54312100
H        2.13161100      -0.04164500      -1.88406100
H       -0.15779500       1.81291000      -2.11537800
H        1.08728600       1.71163600      -3.20045700
