16
Properties=species:S:1:pos:R:3 pbc="F F F"
N       -2.57072500       0.56406900      -0.30607600
C       -1.13064600       0.60750300      -0.03465400
C       -0.50395100      -0.77421900      -0.23699100
C        1.01045500      -0.81196900      -0.07135000
C        1.74917400      -0.03840400       0.96786200
N        1.79333200       0.37127700      -0.43621700
H       -2.98853800       1.48119100      -0.17331700
H       -3.03479000      -0.09519900       0.31364200
H       -0.91903200       0.96798600       0.99410500
H       -0.66379600       1.32766000      -0.71853200
H       -0.75798700      -1.13490000      -1.24053000
H       -0.95959000      -1.49059800       0.46002300
H        1.45836700      -1.77598400      -0.35197200
H        2.65940100      -0.46827800       1.39256300
H        1.21563000       0.63907200       1.63563900
H        2.68189500       0.10415900      -0.86476800
