9
Properties=species:S:1:pos:R:3 pbc="F F F"
C       -0.70513400       1.18819400      -0.63409000
O       -1.30455800      -0.09448500      -0.64732400
C        0.12282200      -0.04265500      -0.61678200
C        0.78593400      -0.49154900       0.59891800
C        1.39598900      -0.85623000       1.57725900
H       -0.85291700       1.76422500       0.28730300
H       -0.80664200       1.76317600      -1.56444000
H        0.60842900      -0.36601000      -1.55259700
H        1.88992000      -1.19207200       2.45649800
