16
Properties=species:S:1:pos:R:3 pbc="F F F"
C       -1.03403900       0.07813400      -2.06812600
C       -0.88534700       0.07832400      -0.55158300
C       -0.16322000      -1.10927000       0.09890500
C        0.88426800      -0.08331500       0.55171000
O        0.14555000       0.99483100      -0.08820600
C        1.06638200       0.13495100       2.04878900
H       -1.76980100      -0.66027300      -2.38350400
H       -0.08992300      -0.15410400      -2.55649400
H       -1.36232300       1.05424500      -2.41895900
H       -1.85938600       0.32434200      -0.07457900
H        0.20113400      -1.87409500      -0.59209800
H       -0.71314200      -1.60456900       0.90350100
H        1.87536100      -0.21149800       0.06381000
H        0.10831400       0.27014300       2.54621800
H        1.66909100       1.02145400       2.23437800
H        1.56801600      -0.71724500       2.50520200
