17
Properties=species:S:1:pos:R:3 pbc="F F F"
C       -1.33738400       1.44322700       0.72145100
C       -0.90061800       0.00364800       0.71454300
C       -1.17238700      -0.81643800       1.73963400
C       -0.14931700      -0.47721800      -0.50847400
C        1.26733800       0.11116800      -0.61749300
N        1.93365400      -0.37516200      -1.82768600
H       -1.88938500       1.68700200       1.62557600
H       -1.97361900       1.65834100      -0.13779000
H       -0.47869000       2.11273600       0.65454300
H       -1.71345000      -0.46749100       2.61050700
H       -0.85814400      -1.85278000       1.72825500
H       -0.71044700      -0.21013100      -1.41143300
H       -0.08052800      -1.56979900      -0.49284900
H        1.84064400      -0.13747600       0.29970400
H        1.21639700       1.20850700      -0.66243300
H        1.99024500      -1.39045300      -1.82373000
H        2.87560400       0.00135900      -1.89451600
