17
Properties=species:S:1:pos:R:3 pbc="F F F"
C       -2.22148900       0.72563900       0.26979400
C       -0.69078400       0.67527100       0.21441800
C       -0.16848100      -0.74201500       0.60366600
C        1.36210500      -0.83108500       0.70262900
O        1.99227500      -0.76470500      -0.57057100
N       -0.22560500       1.10760000      -1.11394400
H       -2.58520100       0.47811600       1.26497200
H       -2.66180100       0.02019300      -0.43309400
H       -2.58083700       1.71911500       0.01328900
H       -0.29067100       1.39198600       0.95703600
H       -0.53150500      -1.48059700      -0.12078600
H       -0.59930400      -1.02358200       1.57069200
H        1.64848600      -1.77804900       1.20810400
H        1.76358500      -0.00491400       1.30793000
H        1.64349600      -1.46442300      -1.13844100
H       -0.64126400       0.52741800      -1.83889200
H        0.78794300       1.01231900      -1.17167800
