21
Properties=species:S:1:pos:R:3 pbc="F F F"
C        0.26574700       1.60840500      -0.90056500
C       -0.35556100       0.32146800      -0.33312700
C       -1.85664900       0.48643600      -0.19430500
C       -2.76173800      -0.26252600      -0.82377800
C        0.25392000      -0.06381500       1.04030400
C        1.75555200      -0.38284500       1.02218100
C        2.12184600      -1.61010000       0.19605500
H        1.33655100       1.49245400      -1.05292400
H        0.11036300       2.44845900      -0.22599800
H       -0.18348900       1.86042100      -1.85872600
H       -0.16254900      -0.49702000      -1.04285100
H       -2.19178900       1.28211700       0.47279600
H       -2.46814800      -1.06055000      -1.49650800
H       -3.82366500      -0.09732900      -0.68542800
H       -0.28918900      -0.93115500       1.42992200
H        0.07652500       0.75357000       1.74840300
H        2.08297800      -0.54104300       2.05578800
H        2.31723000       0.48300300       0.65684900
H        1.58433300      -2.49044800       0.54281100
H        3.18735600      -1.81763200       0.27134900
H        1.88479000      -1.46699100      -0.85608000
