19
Properties=species:S:1:pos:R:3 pbc="F F F"
C        1.96309100       2.08436100      -1.50811200
C        1.25256800       0.79450400      -1.24091500
C        0.55286800       0.53784500      -0.12946900
C       -0.17337600      -0.77355500       0.13692400
C       -1.67518600      -0.54096100       0.10198600
C       -2.53780300      -0.77088500       1.09180400
C        0.31873000      -1.41693700       1.43973800
H        3.03237800       1.91809800      -1.64993700
H        1.83280400       2.78841200      -0.68959500
H        1.59220100       2.55065200      -2.42248100
H        1.32829200       0.03184000      -2.01708200
H        0.47662900       1.29961700       0.64620800
H        0.06274000      -1.46035000      -0.69567500
H       -2.05115700      -0.14138500      -0.84092500
H       -2.22311000      -1.15989700       2.05255700
H       -3.59543000      -0.57365800       0.96339400
H        0.13561900      -0.76766000       2.29332300
H        1.38851800      -1.60746200       1.38815800
H       -0.18483800      -2.36443900       1.62031800
