17
Properties=species:S:1:pos:R:3 pbc="F F F"
C       -1.32434500       1.37410100      -0.86591000
C       -1.45866400       0.43516600       0.34167700
N       -0.80451500      -0.87175200       0.18405800
C        0.63639600      -0.99163900       0.38324500
C        1.64819700      -0.44615000      -0.59582000
C        1.51066100       0.15115600       0.77584200
H       -1.90848800       2.27926100      -0.71227300
H       -1.68651200       0.89192300      -1.77197700
H       -0.29125200       1.66753800      -1.03499700
H       -2.53173800       0.25634200       0.52496400
H       -1.07021600       0.92269200       1.24396300
H       -1.08375300      -1.30557800      -0.69846400
H        0.91258600      -1.95919000       0.82763900
H        1.29316200       0.14454600      -1.43295400
H        2.53537800      -1.03600000      -0.80492100
H        1.08328300       1.14516000       0.84598900
H        2.30568400      -0.04023900       1.49042100
