15
Properties=species:S:1:pos:R:3 pbc="F F F"
C       -2.80942100      -0.37758200      -0.55516600
C       -1.28665200      -0.37157300      -0.52546600
C       -0.72612900       0.47956900       0.61813100
C        0.77549300       0.50418200       0.68644300
N        1.49979100      -0.14888000      -0.16567800
O        2.85853000      -0.00428700       0.05597000
H       -3.17877300      -0.98701700      -1.37720900
H       -3.20375400       0.62903200      -0.68133800
H       -3.21865000      -0.78021000       0.36955000
H       -0.90246300       0.00441400      -1.47902100
H       -0.91746700      -1.39753900      -0.42903000
H       -1.12296300       0.11870400       1.57745200
H       -1.09715800       1.51022400       0.52822300
H        1.23996400       1.10032700       1.48877400
H        3.31474200      -0.52905600      -0.62906700
