19
Properties=species:S:1:pos:R:3 pbc="F F F"
C       -2.47373500      -2.05273400       1.02831900
C       -1.82465100      -1.17517900      -0.03983600
C       -1.25819300       0.09898000       0.52619100
C       -0.05573400       0.64685500       0.25332300
C        0.95734800       0.09389400      -0.63662500
C        2.15503900       0.64945100      -0.91617000
C        2.69606000       1.93784900      -0.38684200
H       -2.91065600      -2.94415100       0.58254700
H       -3.26357100      -1.51464400       1.54903000
H       -1.74419800      -2.37129600       1.76950800
H       -2.58422700      -0.92165400      -0.79400200
H       -1.05340200      -1.74516700      -0.56557200
H       -1.91265600       0.62909800       1.21901000
H        0.18890900       1.58801100       0.74486900
H        0.72254000      -0.85585000      -1.11591000
H        2.81762200       0.11507200      -1.59752000
H        1.97214500       2.47708000       0.21800900
H        3.00764500       2.58862500      -1.20575500
H        3.58304300       1.76017400       0.22562900
