15
Properties=species:S:1:pos:R:3 pbc="F F F"
C       -1.63005500       0.37075300       0.88765000
C       -0.22694200      -0.16707900       0.96686300
C        0.29620900      -0.55993400       2.14271600
C        0.54258000      -0.22466300      -0.30824900
C        1.68609800      -0.92787500      -0.46531700
C        0.00566400       0.50557000      -1.43433400
C       -0.43228300       1.11810900      -2.38364400
H       -2.12319100       0.33029900       1.85564000
H       -2.22480200      -0.19771400       0.17258500
H       -1.62666100       1.40640000       0.54677000
H       -0.28856300      -0.51043600       3.05269700
H        1.31074500      -0.93040200       2.22315600
H        2.11288900      -1.50154700       0.34806300
H        2.20648600      -0.93873700      -1.41428300
H       -0.81452900       1.65285200      -3.21874600
