19
Properties=species:S:1:pos:R:3 pbc="F F F"
C        1.86489900      -0.94887900      -0.98740600
C        1.21109700      -1.26892100       0.35151100
C       -0.03745300      -0.43127400       0.69914300
C        0.22263000       1.09602000       0.81349600
C       -0.92495900       1.72729200       0.07863500
C       -1.70267800       0.82101800      -0.52180800
C       -1.21687300      -0.58282000      -0.30061600
H        2.73118900      -1.58756100      -1.14859400
H        2.20189500       0.08477700      -1.02927300
H        1.17674300      -1.10811300      -1.81495100
H        1.95167000      -1.13693800       1.14876800
H        0.93497600      -2.32951900       0.36748100
H       -0.38349700      -0.78756500       1.68275900
H        1.18245600       1.38902900       0.36734700
H        0.26855900       1.42280700       1.86023000
H       -1.07478400       2.80264300       0.03944100
H       -2.57948300       1.05011500      -1.12105000
H       -0.90325200      -1.04170200      -1.24781200
H       -2.00644700      -1.23259100       0.09792500
