16
Properties=species:S:1:pos:R:3 pbc="F F F"
C       -2.34821000       0.14400000       1.26823900
C       -0.93375200      -0.36945200       1.04895100
N       -0.33985300       0.24376900      -0.13541600
C        0.95109400      -0.04114300      -0.56237800
N        1.69942100      -0.98171900      -0.06498600
C        1.44743900       0.81173200      -1.70266100
H       -2.79059400      -0.31780600       2.14712900
H       -2.98406000      -0.07964700       0.41397900
H       -2.35508100       1.22257700       1.41612700
H       -0.94859400      -1.46574900       0.93131700
H       -0.31928300      -0.16692800       1.94711800
H       -0.77627300       1.09360300      -0.47742400
H        1.24588500      -1.48838000       0.69863600
H        0.80779100       0.70198300      -2.57858800
H        2.45772200       0.52719000      -1.97624400
H        1.44609400       1.86798200      -1.43214800
