19
Properties=species:S:1:pos:R:3 pbc="F F F"
C        0.77142000      -1.49376200       0.76776100
C        0.30885200      -0.07377700       1.10765700
C       -1.23171300       0.05113700       1.17604800
C       -1.97743100      -0.24916600      -0.11711500
C        0.96326400       0.97885900       0.17379500
C        0.84503200       0.70475000      -1.25841000
C        0.80936500       0.51328400      -2.45153000
H        1.85338900      -1.57514800       0.85328400
H        0.49628900      -1.76558900      -0.24825300
H        0.32411400      -2.21809600       1.44564300
H        0.67608100       0.15938800       2.12218000
H       -1.59229300      -0.62324000       1.96101400
H       -1.48244900       1.06559500       1.50737100
H       -1.77320300      -1.25815900      -0.46713900
H       -1.69536800       0.44304500      -0.90578300
H       -3.05087800      -0.16096100       0.03895400
H        2.03261700       1.04778100       0.41621400
H        0.53513000       1.96827200       0.38266200
H        0.74383400       0.32916600      -3.49538000
