13
Properties=species:S:1:pos:R:3 pbc="F F F"
C       -0.09400500       1.65005400      -1.32457400
C        0.54531400       0.91706700      -0.15037500
C       -0.37457600      -0.14047000       0.44667000
C       -0.29890800      -1.56196600       0.04885900
O        0.23590800      -1.11592700       1.29018500
H        0.57447600       2.41400100      -1.71496300
H       -1.01932000       2.13817100      -1.02387300
H       -0.32954200       0.96526300      -2.13739900
H        0.81228400       1.64180700       0.62697600
H        1.47989400       0.44615000      -0.46901400
H       -1.33942500       0.23577800       0.82821800
H        0.44784300      -1.89063500      -0.68518000
H       -1.18042300      -2.21122100       0.13027200
