21
Properties=species:S:1:pos:R:3 pbc="F F F"
C       -3.25954800      -0.99669500       0.27336000
C       -1.74426600      -1.13345900       0.19102300
C       -1.01369000      -0.10675100       1.06480400
C        0.51874500      -0.24714800       1.02802800
C        1.13170100       0.12975300      -0.29484200
C        2.10482100       1.03839700      -0.43487400
C        2.72883000       1.41006300      -1.74324200
H       -3.75072600      -1.73684200      -0.35511700
H       -3.58157300      -0.01076900      -0.05580300
H       -3.61092300      -1.13628200       1.29398200
H       -1.42675100      -1.02406600      -0.85094600
H       -1.45267100      -2.14459300       0.49588700
H       -1.34943300      -0.21664500       2.10214500
H       -1.29762900       0.90464100       0.75674500
H        0.78201100      -1.28757900       1.26625800
H        0.95521300       0.37087700       1.82001100
H        0.75168000      -0.38440100      -1.17770700
H        2.48561200       1.55689400       0.44545400
H        2.30208000       0.84007600      -2.56542500
H        3.80558400       1.23197300      -1.72656300
H        2.58796300       2.47175900      -1.95445400
