16
Properties=species:S:1:pos:R:3 pbc="F F F"
C       -0.46585600       2.46703000      -1.10573100
N       -0.63382900       1.04096800      -0.84695800
C        0.46024800       0.45239900      -0.06144300
C        0.32424700      -1.06122000       0.00919800
C        0.83568300      -1.81598800       1.18771200
N       -0.60267800      -1.66057000       0.97453500
H       -1.29878700       2.82965800      -1.71192300
H        0.47413400       2.70472300      -1.63742100
H       -0.45920800       3.02350400      -0.16409400
H       -0.74199300       0.53416500      -1.72836500
H        0.44701700       0.88156000       0.95308400
H        1.45440000       0.71405800      -0.49120300
H        0.33638100      -1.56996300      -0.96338500
H        1.28335600      -1.26022000       2.01486000
H        1.21967700      -2.82947900       1.06118900
H       -0.98535500      -0.94411600       1.59580400
