17
Properties=species:S:1:pos:R:3 pbc="F F F"
C       -0.18216400       2.11466600      -0.19617200
C       -0.80565600       1.16284100       0.81427900
C       -0.35642600      -0.31322900       0.63080100
C       -0.79871600      -0.85157100      -0.66605200
C       -1.19910200      -1.29955400      -1.71434900
C        1.13417100      -0.47101700       0.87021300
C        1.99367600      -1.08316400       0.05711100
H       -0.53231200       3.13224500      -0.03374300
H       -0.44189000       1.82488800      -1.21158800
H        0.90277500       2.11321100      -0.11521400
H       -1.89689500       1.21061900       0.74200100
H       -0.54454800       1.47877000       1.83061000
H       -0.87323000      -0.90052100       1.41656800
H       -1.53541900      -1.68878800      -2.64370800
H        1.49152900      -0.04442000       1.80853600
H        1.67227300      -1.51538000      -0.88297300
H        3.04302100      -1.16445400       0.31452200
