19
Properties=species:S:1:pos:R:3 pbc="F F F"
C        0.31308700       1.85251800      -1.93164200
C       -0.81754300       1.19965900      -1.13741100
C       -0.34362900       0.14043400      -0.17563600
C       -0.72167300      -1.14698100      -0.16710700
C       -0.07582200      -1.93153000       0.94003200
C        0.79353200      -0.89961300       1.68857800
C        0.62830600       0.43870600       0.94110500
H       -0.08166600       2.59852700      -2.61859900
H        0.85918100       1.11416700      -2.51453200
H        1.02163100       2.34768300      -1.27087600
H       -1.54440300       0.76223000      -1.82960200
H       -1.35201000       1.98115200      -0.58025100
H       -1.41492400      -1.59397100      -0.87382600
H        0.52480300      -2.76279600       0.54693800
H       -0.82339400      -2.39076600       1.60026300
H        1.84172200      -1.21019100       1.71364100
H        0.47792100      -0.80540800       2.73140000
H        1.58471600       0.80829700       0.54954800
H        0.24887000       1.23192000       1.59838100
