14
Properties=species:S:1:pos:R:3 pbc="F F F"
C        0.34712100      -1.63466100      -2.14584000
C        0.38989800      -0.73068800      -0.95698500
C       -0.60931300       0.08425400      -0.59080000
C       -0.55003700       0.98226600       0.60198600
C       -0.32488500       0.45917000       1.97437800
O        0.70822800       1.12108400       1.26554100
H        1.14948000      -1.39372300      -2.84533000
H       -0.60068900      -1.55851300      -2.67438900
H        0.49141200      -2.67531500      -1.84974100
H        1.30320700      -0.73604500      -0.36297100
H       -1.52713900       0.12076600      -1.17879800
H       -1.11506500       1.92572200       0.51209500
H       -0.16745900      -0.61559000       2.13244800
H       -0.71628200       1.00198100       2.84591900
