14
Properties=species:S:1:pos:R:3 pbc="F F F"
O       -0.13673600       2.12234100      -1.08292300
C        0.50280800       1.14320500      -0.28369400
C       -0.53892300       0.24818000       0.36406400
C       -1.03616200      -0.99056600      -0.35774200
C       -0.19031700      -1.12358500       0.86952300
O        1.12764000      -1.61218000       0.75447900
H        0.52095300       2.71564500      -1.46726600
H        1.12237800       1.64110800       0.49497700
H        1.20480300       0.54191500      -0.90389800
H       -1.29816000       0.79312400       0.92663500
H       -0.58097000      -1.21941800      -1.31679900
H       -2.09552900      -1.22094300      -0.29757000
H       -0.65679500      -1.47078900       1.79668100
H        1.43165100      -1.52534200      -0.15811300
