15
Properties=species:S:1:pos:R:3 pbc="F F F"
O       -2.53302300      -0.23564000       0.55651600
C       -1.11934600      -0.35262700       0.53748500
C       -0.55772200       0.59411200      -0.51927400
C        0.96138400       0.57696400      -0.63151900
C        1.77246900      -0.67446800      -0.60675200
N        1.75416100       0.22218500       0.54954600
H       -2.89955100      -0.80141300       1.24781800
H       -0.83149900      -1.40345500       0.31966900
H       -0.70391400      -0.10915800       1.53571500
H       -0.88740900       1.61334700      -0.28699800
H       -0.99861400       0.35337100      -1.49414000
H        1.36911900       1.39363500      -1.24316300
H        2.69279600      -0.71383100      -1.19343900
H        1.29046800      -1.64140200      -0.45652500
H        2.61295000       0.77484500       0.59247500
