14
Properties=species:S:1:pos:R:3 pbc="F F F"
O       -1.33639600      -0.02589100       1.48198600
C       -1.30483000       0.63400100       0.22448300
C       -0.80488700      -0.32407800      -0.85573800
C        0.70248800      -0.55340100      -0.84434900
C        1.54463800      -0.42795900       0.36258200
O        1.53562200       0.58890800      -0.63681900
H       -1.67922700       0.57489900       2.15628300
H       -0.65447800       1.52888300       0.27862000
H       -2.32497300       0.99049400      -0.03293900
H       -1.09042800       0.06939400      -1.83927500
H       -1.31775900      -1.28683800      -0.75108100
H        1.06399600      -1.21660400      -1.65002000
H        2.48325800      -0.99412100       0.43343000
H        1.10136200      -0.14161400       1.32178600
