21
Properties=species:S:1:pos:R:3 pbc="F F F"
C       -2.90315600      -0.21208500      -0.46958600
C       -1.39281600      -0.00975000      -0.45538400
C       -0.63656400      -1.29150400      -0.08889400
C        0.89107100      -1.15108800      -0.11093200
C        1.46298900      -0.23114900       0.98322400
C        1.36194100       1.24973100       0.70347400
C        1.73890800       1.84590000      -0.42885400
H       -3.41603000       0.70616400      -0.74811600
H       -3.26751400      -0.51486800       0.51027800
H       -3.18928500      -0.98435000      -1.18120500
H       -1.13891700       0.78301700       0.25489400
H       -1.06147100       0.34031400      -1.43847900
H       -0.92202700      -2.08552600      -0.78857200
H       -0.95610300      -1.63147700       0.90278800
H        1.21700300      -0.79851000      -1.09470600
H        1.32701300      -2.14853100       0.01751400
H        2.52251000      -0.48362000       1.12609300
H        0.97392900      -0.45266200       1.93734400
H        0.98859000       1.86825400       1.52047900
H        2.12461600       1.28172600      -1.26990400
H        1.66344600       2.91974600      -0.54669400
