17
Properties=species:S:1:pos:R:3 pbc="F F F"
C       -3.01739200      -0.95514900      -0.13135100
C       -1.71540100      -0.72519900      -0.37846600
C       -0.86365200       0.04918200       0.50669000
C        0.46125700       0.33088000       0.33162600
C        1.22446200      -0.13527900      -0.82758700
C        2.52588500       0.11300400      -1.04933200
C        1.18263100       1.15478100       1.36566600
H       -3.62398000      -1.53703500      -0.81350500
H       -3.49916200      -0.56454400       0.75753700
H       -1.27512400      -1.13763100      -1.28550500
H       -1.34901000       0.43992600       1.40137400
H        0.68430400      -0.72991200      -1.56301400
H        3.12629300       0.69694200      -0.36218500
H        3.01981000      -0.26858700      -1.93424300
H        0.51540300       1.44429400       2.17400900
H        1.59719600       2.06258100       0.92536500
H        2.01753200       0.60064600       1.79668700
