19
Properties=species:S:1:pos:R:3 pbc="F F F"
C       -1.75983500       1.23509100      -0.85743900
C       -2.06903800       0.35791900       0.09746100
C       -1.13266700      -0.23154400       1.11783200
C        0.33854800       0.17631800       1.01156800
C        1.12764900      -0.40125500      -0.14695900
C        0.63364100      -1.27126800      -1.03790100
C        2.55872000       0.06409900      -0.22363900
H       -2.51830900       1.60601400      -1.53588600
H       -0.74932800       1.59758300      -0.99823200
H       -3.10434100       0.02475300       0.18924800
H       -1.22057700      -1.32534300       1.08877900
H       -1.50018100       0.05451400       2.11371200
H        0.84596100      -0.11483400       1.94175200
H        0.41533200       1.27048000       0.97840900
H       -0.39331500      -1.60841100      -0.99872400
H        1.25360900      -1.65462200      -1.83891500
H        2.60918600       1.14831200      -0.33284300
H        3.08094700      -0.38735500      -1.06306500
H        3.09890900      -0.18724800       0.69022400
