16
Properties=species:S:1:pos:R:3 pbc="F F F"
O       -2.63117000       0.71716600      -1.25579400
C       -1.21357600       0.69936900      -1.22565200
C       -0.75765800      -0.02058700       0.03501700
O        0.66694300      -0.03696100       0.06480000
C        1.19759500      -0.69397600       1.21423900
C        2.71361300      -0.66252900       1.16290300
H       -2.93904600       1.17141200      -2.05047400
H       -0.81798700       1.73572700      -1.24721900
H       -0.81864500       0.19088300      -2.12925100
H       -1.15214300      -1.05802000       0.05682400
H       -1.15280200       0.48736700       0.93957100
H        0.82700700      -1.74183300       1.25354800
H        0.82494100      -0.19768100       2.13711600
H        3.08326300      -1.16469000       0.27145300
H        3.13825000      -1.15968900       2.03304500
H        3.08114000       0.36121900       1.14430300
