14
Properties=species:S:1:pos:R:3 pbc="F F F"
C       -2.07665600      -0.64082200      -0.56451900
N       -0.64751900      -0.65241700      -0.32409800
C        0.02503100       0.42647900       0.23758800
N       -0.56864100       1.47133900       0.74978600
C        1.50580600       0.36316000       0.28532900
C        2.27704200      -0.64791900      -0.12791600
H       -2.38546500      -1.61989700      -0.93249600
H       -2.37558000       0.11473100      -1.30843400
H       -2.62744300      -0.43327200       0.35909500
H       -0.10353000      -1.31472200      -0.86711400
H       -1.58769000       1.42451900       0.67298300
H        1.97765400       1.24557200       0.71236900
H        1.87214900      -1.55960200      -0.55559100
H        3.35568300      -0.59517500      -0.04351800
