16
Properties=species:S:1:pos:R:3 pbc="F F F"
C       -2.96144300      -0.33500100      -1.10671600
C       -1.47238200      -0.22674700      -1.09805600
C       -0.72946400      -0.04733600       0.01222800
C        0.72395700       0.05128700      -0.00273400
C        1.47381800       0.23054700       1.10281000
C        2.96375900       0.32973800       1.09682000
H       -3.28092900      -1.28852000      -1.53262400
H       -3.40728100       0.44772400      -1.72427900
H       -3.37484800      -0.25423800      -0.10399800
H       -0.97381500      -0.30239600      -2.06468600
H       -1.22318100       0.02805200       0.98128400
H        1.21476200      -0.02863400      -0.97301000
H        0.98406900       0.31113900       2.07354300
H        3.36750700       0.22594000       0.09218300
H        3.40992300      -0.44343500       1.72568700
H        3.29433200       1.28943700       1.49978500
