21
Properties=species:S:1:pos:R:3 pbc="F F F"
C       -2.99823200       0.45908100      -0.16481300
C       -1.52418600       0.21889600      -0.04887800
C       -0.61087100       0.89745800      -0.75418300
C        0.89074300       0.76692000      -0.74568600
C        1.58132000      -0.30507000       0.13023700
C        1.41128400      -0.05312800       1.63401000
C        1.20245700      -1.73902500      -0.26225400
H       -3.51875700      -0.45091100      -0.46874200
H       -3.22105100       1.23698700      -0.89171800
H       -3.42187200       0.75854100       0.79562100
H       -1.22580500      -0.55549900       0.65386300
H       -0.97123400       1.66491300      -1.44306400
H        1.30781300       1.74707100      -0.47129000
H        1.21250900       0.60992400      -1.78538900
H        2.65899100      -0.19693700      -0.08423400
H        0.37908900      -0.16688600       1.95420500
H        1.73134100       0.95442100       1.89228600
H        2.01547000      -0.75422600       2.20681200
H        0.16483600      -1.96592400      -0.03319000
H        1.82315700      -2.45522500       0.27279700
H        1.35041600      -1.89704500      -1.32855300
