16
Properties=species:S:1:pos:R:3 pbc="F F F"
C       -2.16038300       0.10681700       0.63535300
C       -0.64841400       0.02901300       0.58917900
C        0.14065400       0.83475000      -0.40659700
C        0.04426700      -0.65742500      -0.58246000
C        1.22201600      -1.57694500      -0.33437700
O        1.35416100       1.43467500      -0.01944600
H       -2.49192900       0.92175900       1.27852900
H       -2.59340600      -0.81543600       1.02295900
H       -2.57241200       0.27661200      -0.35748100
H       -0.17189400      -0.12637600       1.55818300
H       -0.40370800       1.47228000      -1.10991600
H       -0.62017400      -0.99593700      -1.37954400
H        1.83359000      -1.22898400       0.49722800
H        1.86249700      -1.64277500      -1.21367600
H        0.88574100      -2.58531200      -0.09452200
H        1.84957300       0.82949900       0.54722000
