17
Properties=species:S:1:pos:R:3 pbc="F F F"
C       -0.11729900      -2.27623500       0.91323100
C       -0.56566900      -0.83166700       0.73882400
C       -0.02910400      -0.21007000      -0.57524400
C       -0.57971700       1.20908000      -0.83116300
N       -0.03285800       2.16407800       0.14179900
O        1.39798100      -0.14843100      -0.55457100
H       -0.44860800      -2.67691300       1.86952300
H        0.96669000      -2.34392100       0.86974500
H       -0.52308000      -2.90793000       0.12496700
H       -0.21958000      -0.23751400       1.59137500
H       -1.66055500      -0.77647200       0.74505700
H       -0.31708900      -0.86532000      -1.42130600
H       -1.68915900       1.19375700      -0.82164300
H       -0.27891400       1.53897200      -1.83399400
H       -0.37868300       1.96496500       1.07780300
H       -0.29912900       3.11476200      -0.10209800
H        1.64499500       0.68786600      -0.12934900
