17
Properties=species:S:1:pos:R:3 pbc="F F F"
C        1.33863200      -1.33829400       0.26998100
C        1.16922500      -1.14037100       1.73533800
N        0.62829700      -0.16594400       0.78665200
C       -0.83785800      -0.15985200       0.63415400
C       -1.29230400       0.60456600      -0.60549200
C       -0.56260600       1.80738400      -1.09408500
N       -0.50449200       0.54877500      -1.84025000
H        0.74534200      -2.11606300      -0.21691400
H        2.30578700      -1.13808300      -0.19514100
H        2.01084800      -0.79397000       2.33761700
H        0.46000300      -1.78158300       2.26423900
H       -1.27528400       0.31558200       1.52817600
H       -1.24622800      -1.19131500       0.60624800
H       -2.37681300       0.57072800      -0.77225600
H        0.34337700       2.11681100      -0.57134200
H       -1.11285700       2.61446300      -1.58132200
H        0.38866100       0.08301500      -1.66350100
