13
Properties=species:S:1:pos:R:3 pbc="F F F"
N       -1.47985500       0.87240400       0.23428700
C       -0.01219600       0.77474500       0.19799700
C        0.49803000      -0.25752300       1.13884800
C        0.88630100      -1.11284300       1.89987000
C        0.44337900       0.46283200      -1.24760200
O       -0.03710900      -0.80075300      -1.66640100
H       -1.82043600       0.86284400       1.19305800
H       -1.88523600       0.08260400      -0.26597400
H        0.41953500       1.74914000       0.50436500
H        1.23661000      -1.84412200       2.58721400
H        1.55104800       0.49598200      -1.30969500
H        0.04526700       1.21822100      -1.93890100
H        0.21597100      -1.46874500      -1.01354000
