13
Properties=species:S:1:pos:R:3 pbc="F F F"
C        0.10437600      -0.48458000      -0.66046800
C       -0.39335400      -0.44152100       0.77920200
C       -1.84883800      -0.48000200       1.10124400
N       -1.09484400       0.76717300       1.21169800
C        1.50267000       0.11216500      -0.82643600
O        1.88437400       0.66138600      -1.82639000
H       -0.59497000       0.02845100      -1.32431700
H        0.15188100      -1.52899300      -1.00034400
H        0.29027200      -0.89171000       1.51215400
H       -2.16893100      -0.95829400       2.02902300
H       -2.58058600      -0.51178900       0.29320400
H       -0.88800400       0.98502100       2.18863900
H        2.19012600      -0.02036300       0.06962000
