17
Properties=species:S:1:pos:R:3 pbc="F F F"
C       -1.75808000      -1.70051600       0.17140000
C       -0.29956400      -1.38580200       0.19330000
C        0.28427900      -0.18122500      -0.04747100
C       -0.47101000       1.05124400      -0.36439000
C       -1.60735200       1.44811500       0.21995300
C        1.75527400      -0.10653700      -0.04022600
C        2.49119000       1.00394000      -0.19237200
H       -1.92685400      -2.68960400      -0.25477900
H       -2.32526100      -0.97217200      -0.40457100
H       -2.17570800      -1.71883600       1.18191800
H        0.36035700      -2.22907000       0.40274000
H       -0.02731100       1.69271200      -1.12757700
H       -2.06708000       0.88687200       1.02402000
H       -2.08870700       2.37354900      -0.07311300
H        2.26968300      -1.05559700       0.11914800
H        2.03950100       1.97767700      -0.33900100
H        3.57295300       0.95915000      -0.16994400
