18
Properties=species:S:1:pos:R:3 pbc="F F F"
C       -0.86529100       0.05176700      -2.08335000
C       -0.88536400      -0.64316300      -0.72203000
C       -0.35871800       0.23501200       0.39610800
C       -1.18175800       0.77515800       1.30494000
C        1.13698300       0.47772800       0.44407800
C        1.92363500      -0.74551800       0.91496500
H       -1.24502400      -0.61230400      -2.85727000
H        0.14447200       0.34720000      -2.36091300
H       -1.48474400       0.94578200      -2.07286700
H       -0.28449300      -1.55853900      -0.78103000
H       -1.90995000      -0.95137100      -0.49319600
H       -2.24994200       0.59851800       1.27167300
H       -0.80507700       1.40563200       2.10130200
H        1.34969700       1.31859200       1.11098400
H        1.49165800       0.76662800      -0.55238900
H        1.62568400      -1.03720000       1.91969600
H        2.99067600      -0.53177100       0.92829600
H        1.76011800      -1.59707200       0.25744400
