15
Properties=species:S:1:pos:R:3 pbc="F F F"
N       -1.82494600       0.63232000      -1.96529200
C       -0.76319200      -0.32111200      -1.63251900
C       -0.28808200      -0.14052200      -0.21754100
C        0.99409500      -0.28814200       0.16633200
C        1.49868800      -0.15495100       1.53437900
C        0.77190500       0.12478200       2.62680200
H       -2.13679200       0.50305900      -2.92413100
H       -1.49741600       1.58851900      -1.85610000
H        0.09685300      -0.25940800      -2.33312900
H       -1.17227400      -1.34051200      -1.75094100
H       -1.05034700       0.10402700       0.52134000
H        1.74154100      -0.52597800      -0.59143500
H        2.57267600      -0.30150000       1.64965900
H       -0.29950000       0.28025800       2.57701300
H        1.23939400       0.20496600       3.60004800
