18
Properties=species:S:1:pos:R:3 pbc="F F F"
C       -1.19694700      -1.07775400       1.34505800
C        0.26663700      -0.84640100       1.00320700
C        0.65537300       0.09503900      -0.12437400
C       -0.11232900       0.80335700      -0.97567600
C       -1.59939300       0.91733200      -1.11329000
C        2.16377600       0.22110300      -0.27784800
H       -1.26382000      -1.75310100       2.19705200
H       -1.73861200      -1.53897900       0.52268200
H       -1.70052500      -0.15436300       1.62098400
H        0.72984600      -1.81988500       0.78832900
H        0.77916400      -0.49240600       1.90870300
H        0.42758000       1.41347600      -1.70249500
H       -2.15873700       0.27957500      -0.44076700
H       -1.89902400       0.67148500      -2.13400600
H       -1.91504400       1.94836600      -0.93841200
H        2.69210400      -0.36805100       0.46790700
H        2.48983700       1.25592000      -0.17253300
H        2.49453300      -0.11809200      -1.25991000
