18
Properties=species:S:1:pos:R:3 pbc="F F F"
C        0.18852400      -2.31065000      -0.61273100
C       -0.19230900      -1.13060600       0.27103300
C        0.27207000       0.22283300      -0.30271400
C       -0.27528300       1.40949600       0.53232800
N       -1.73866000       1.45472100       0.49721700
N        1.74688200       0.26058100      -0.38795100
H       -0.13361400      -3.25046000      -0.16785900
H        1.26556900      -2.35466000      -0.75620500
H       -0.27393000      -2.22896100      -1.59479900
H        0.24033000      -1.26525500       1.26905100
H       -1.27762000      -1.10180400       0.40534300
H       -0.12069400       0.32092900      -1.33266800
H        0.17616400       2.35266600       0.15471400
H        0.04903600       1.31264600       1.57882100
H       -2.07330700       1.53062200      -0.46018900
H       -2.08698600       2.24982900       1.02630700
H        2.15953400       0.12120400       0.53146100
H        2.05995000       1.15969200      -0.74634400
