12
Properties=species:S:1:pos:R:3 pbc="F F F"
C       -1.99525900       0.06624800      -2.11010200
C       -0.66010100       0.07816100      -1.97152700
C        0.02134100       0.05390300      -0.71593400
C        0.63342200       0.03199800       0.33899200
C        1.38151300       0.01649500       1.55620900
C        0.85269900      -0.21615600       2.76791300
H       -2.45054800       0.08979300      -3.09229300
H       -2.65428800       0.03666700      -1.25147300
H       -0.02088700       0.11102900      -2.85700500
H        2.45258000       0.20798700       1.45688100
H       -0.20441600      -0.41169800       2.89712100
H        1.47586800      -0.21767000       3.65346800
