17
Properties=species:S:1:pos:R:3 pbc="F F F"
C       -1.34675700      -2.19437100      -0.80296500
C       -0.42595400      -1.94103100       0.34834800
C       -0.18848900      -0.76915000       0.95271000
C       -0.81295600       0.56028600       0.62078400
C        0.20559100       1.71580200       0.62138800
C        1.19989900       1.61260700      -0.44679400
C        2.02128300       1.54831100      -1.33020300
H       -0.81790800      -2.70477600      -1.60893700
H       -1.77523900      -1.27915500      -1.20310000
H       -2.16845900      -2.84701000      -0.50086900
H        0.09856400      -2.82087200       0.72181000
H        0.51534600      -0.75718900       1.78559800
H       -1.58285600       0.79337200       1.37075900
H       -1.32502500       0.52218000      -0.34416600
H        0.72400500       1.75195700       1.58889100
H       -0.32652200       2.67099800       0.51678500
H        2.74239600       1.47577200      -2.10637600
