11
Properties=species:S:1:pos:R:3 pbc="F F F"
C       -0.89548400      -0.86357100      -1.31325400
N       -1.57350500      -0.51938700      -0.27028000
O       -0.93362200      -0.20459300       0.89459000
C        0.51373000      -0.33014300       0.95622700
C        1.20965600       0.70868800       0.19018300
C        1.81401100       1.57455400      -0.39761600
H       -1.46433700      -1.10321800      -2.21265300
H        0.19630000      -0.92690900      -1.38011900
H        0.82122300      -1.33987900       0.62444100
H        0.76040600      -0.23486900       2.02561900
H        2.31843800       2.34016700      -0.93528600
