14
Properties=species:S:1:pos:R:3 pbc="F F F"
C       -1.43522100      -1.80455700       1.14977800
C        0.02196000      -1.56585000       0.90964700
C        0.58871900      -0.44748200       0.43778800
C       -0.13403200       0.82595000       0.06553900
C        0.47992100       1.51541000      -1.07141300
C        0.97911100       2.09735100      -2.00489400
H       -1.74938400      -2.74332600       0.69295200
H       -2.05831100      -1.00665100       0.75325100
H       -1.63944000      -1.88934400       2.21889200
H        0.67566400      -2.40226400       1.15731100
H        1.67111900      -0.42554300       0.32372000
H       -0.13367500       1.51400600       0.92684700
H       -1.18888400       0.62734200      -0.16209000
H        1.42016100       2.60084600      -2.82954900
