10
Properties=species:S:1:pos:R:3 pbc="F F F"
N       -0.95310700      -0.96336300       0.85596100
C        0.40110200      -0.90068300       0.81426200
C        1.09642000      -0.01990000       0.01983200
C        0.43539700       0.94529300      -0.84774800
O       -0.78282300       1.06896500      -0.96450200
H       -1.42923000      -1.61208200       1.46586100
H       -1.47057600      -0.30595800       0.26832600
H        0.92681800      -1.60745300       1.46113600
H        2.18021300      -0.04427300       0.05010000
H        1.12959100       1.61332000      -1.43920600
