17
Properties=species:S:1:pos:R:3 pbc="F F F"
C       -0.15656500      -0.02003400       2.26079700
C       -0.42749800       0.04480900       0.77234000
C        0.51617700       0.75302900      -0.15080600
C        0.41937000      -0.76093700      -0.19334400
C       -0.22321200      -1.48509900      -1.35695600
N       -0.01769700       1.58905300      -1.21657900
H       -0.52508200       0.87240400       2.76668000
H        0.90990800      -0.10116300       2.46217300
H       -0.64798700      -0.88074700       2.71448800
H       -1.48444200       0.12066900       0.51113100
H        1.42867400       1.16228300       0.29597600
H        1.25704700      -1.29635800       0.25745100
H       -1.06128600      -0.92036400      -1.76050400
H       -0.59761300      -2.46316900      -1.05464700
H        0.49178600      -1.64387400      -2.16474300
H       -0.96988500       1.31940000      -1.44756400
H        0.55313000       1.51694000      -2.05657900
