16
Properties=species:S:1:pos:R:3 pbc="F F F"
C       -1.69821300       0.51883400       0.56427100
C       -0.16256700       0.52211500       0.54196900
C        0.36707800      -0.69192800      -0.24026800
N        0.14862300      -0.90262000      -1.50277300
N        1.15492200      -1.57701900       0.47914100
C        0.38088000       1.82991900      -0.05192800
H       -2.07806400      -0.38091600       1.04400800
H       -2.09957300       0.55533100      -0.44625400
H       -2.07769700       1.38066000       1.10962900
H        0.19419700       0.44525100       1.58126000
H       -0.41784900      -0.16396300      -1.92502200
H        1.10987600      -1.56959000       1.48844900
H        1.37055900      -2.46040400       0.03360900
H        0.07890500       1.93842600      -1.09153000
H        1.46775400       1.85042400      -0.01335600
H        0.00400800       2.68861100       0.50037000
