19
Properties=species:S:1:pos:R:3 pbc="F F F"
C       -2.58853300       0.81619600       0.81564300
C       -1.06584000       0.82999500       0.76479600
C       -0.47285600      -0.56473600       0.53049700
C        1.06139300      -0.59033100       0.55297000
C        1.71730000       0.08383500      -0.65778100
N        1.37122700      -0.60031600      -1.90599600
H       -2.98091800       1.81764000       0.98115600
H       -2.94779400       0.17783500       1.62080800
H       -3.00822800       0.44155200      -0.11572400
H       -0.67481800       1.24042100       1.70258100
H       -0.73551700       1.50869000      -0.02814700
H       -0.82711700      -0.95515000      -0.42812800
H       -0.84945400      -1.24651700       1.30180200
H        1.39662500      -1.63324300       0.59926500
H        1.42490000      -0.10987000       1.46844800
H        2.81705600       0.11246900      -0.49671300
H        1.39321100       1.13177100      -0.73161200
H        1.65511700      -1.57595400      -1.87091600
H        1.82955700      -0.15718500      -2.69760400
