14
Properties=species:S:1:pos:R:3 pbc="F F F"
C       -2.11346300       0.07861700       0.80467300
C       -0.70235000      -0.25259700       0.34414200
N       -0.16440800      -1.42943900       0.45888300
N       -0.03319900       0.82557800      -0.21573700
C        1.26621500       0.87058900      -0.73548100
C        2.14974500      -0.13875700      -0.80140500
H       -2.59420800      -0.79376600       1.23748600
H       -2.72585900       0.42652700      -0.02710300
H       -2.10573000       0.86943100       1.55462900
H       -0.80010900      -2.10169700       0.89357600
H       -0.54984000       1.69771500      -0.25477000
H        1.52674900       1.86274000      -1.11172600
H        1.90698200      -1.12511300      -0.43366900
H        3.12437900       0.04409000      -1.23201600
