17
Properties=species:S:1:pos:R:3 pbc="F F F"
C       -1.90986900       0.87455000      -1.38352000
C       -0.40041900       0.74813500      -1.23830300
C        0.02176700      -0.41446600      -0.29751200
C       -0.47695800      -0.20492200       1.07158800
C       -0.91039900      -0.03848400       2.18707500
C        1.52334600      -0.62985600      -0.35796100
C        2.35592800      -0.62162900       0.68188600
H       -2.16392400       1.69797200      -2.04789600
H       -2.37936800       1.06053900      -0.42047100
H       -2.34210500      -0.03562100      -1.79578700
H        0.01523200       1.68689400      -0.86120500
H        0.05268100       0.57880100      -2.22123200
H       -0.45727100      -1.33659900      -0.68205800
H       -1.27950900       0.11145100       3.17180700
H        1.91708900      -0.80622700      -1.36000000
H        1.99909600      -0.44606500       1.68964500
H        3.41769100      -0.79111200       0.54768400
