14
Properties=species:S:1:pos:R:3 pbc="F F F"
C       -0.32603800      -1.79471000      -1.09657000
O       -1.05636400      -0.70760300      -0.56428500
C       -0.41010800       0.30120100       0.09527800
C       -1.16694800       1.23973000       0.71590500
C        1.06776900       0.34292700       0.06067600
C        1.83005500       0.97487200       0.96191400
H       -1.04917000      -2.55806200      -1.40131700
H        0.35741700      -2.23016900      -0.35177800
H        0.25999800      -1.49910500      -1.98334400
H       -2.24541200       1.17673400       0.69363300
H       -0.70568800       2.07516200       1.22039000
H        1.55943300      -0.16497000      -0.76854100
H        1.39679000       1.48570900       1.81395800
H        2.90915300       0.99140600       0.86806100
