12
Properties=species:S:1:pos:R:3 pbc="F F F"
C       -1.18497000       0.84837200       0.53170500
C        0.33344900       0.76986400       0.47988100
C        0.89632300      -0.41522500      -0.25643800
C        0.19737300      -1.37499000      -0.86271900
H       -1.50111500       1.73022000       1.08513600
H       -1.60705700      -0.02533900       1.02339700
H       -1.61030400       0.90947800      -0.46758400
H        0.73510200       0.76434700       1.50221400
H        0.73275500       1.68502300       0.02178000
H        1.98623700      -0.46445400      -0.27740500
H       -0.88551000      -1.37511000      -0.87397100
H        0.69684700      -2.19228700      -1.36814400
