16
Properties=species:S:1:pos:R:3 pbc="F F F"
C       -1.58107200      -0.65765300      -0.21218500
C       -0.07361600      -0.88439400      -0.33206000
C        0.75420100       0.40951800      -0.16782300
C        0.33861900       1.56393900       0.67945400
N        0.25209600       1.64339200      -0.77857000
N        0.35762500      -1.92155200       0.63230800
H       -1.90426500       0.12752100      -0.89059100
H       -1.85698800      -0.36762000       0.80038700
H       -2.12227400      -1.56930500      -0.45486100
H        0.13612700      -1.27959400      -1.34509200
H        1.83855700       0.24812100      -0.25539700
H        1.11214100       2.16092400       1.16827800
H       -0.61789000       1.54624800       1.20310700
H        1.01925400       2.20268000      -1.15740400
H        0.13726900      -1.63595400       1.58342500
H        1.36123100      -2.07435600       0.56766500
