23
Properties=species:S:1:pos:R:3 pbc="F F F"
C        0.14086000       2.28403700       0.62887500
C       -0.29785700       1.52221600      -0.61629700
C        0.21122100       0.06128100      -0.70983600
C       -0.25243500      -0.83138900       0.48434900
C        0.19866500      -2.28988200       0.30824000
C       -1.77537200      -0.78427100       0.68010000
C        1.73778700       0.03610900      -0.88286600
H       -0.22143400       3.30966500       0.59361400
H        1.22493400       2.31750700       0.71177000
H       -0.24991900       1.82573500       1.53483900
H        0.05547100       2.06069500      -1.50277800
H       -1.39084100       1.53128500      -0.67672400
H       -0.23101300      -0.36279000      -1.62706800
H        0.21802900      -0.44616300       1.40289400
H       -0.17784700      -2.70774900      -0.62367600
H       -0.17839700      -2.90455900       1.12337800
H        1.28246400      -2.37715700       0.30281300
H       -2.29748200      -1.07815500      -0.22856700
H       -2.11393200       0.21135700       0.95628500
H       -2.07770600      -1.46751400       1.47138300
H        2.24688500       0.31897700       0.03643700
H        2.04411900       0.73272500      -1.66115600
H        2.08945500      -0.95247100      -1.16882500
