17
Properties=species:S:1:pos:R:3 pbc="F F F"
C        0.44758500       2.23237500       0.48158300
C       -0.34613200       1.27976100      -0.40560000
C        0.41338700      -0.00508100      -0.71203200
N       -0.36368000      -1.16411400      -1.16783700
C        0.32762300      -1.24285100       0.12649300
C       -0.51829400      -1.35359400       1.37712900
H       -0.10818000       3.15010600       0.66197600
H        1.39483900       2.50205500       0.01767700
H        0.66823200       1.78006800       1.44652600
H       -0.59006400       1.78409800      -1.34828000
H       -1.30173800       1.04012800       0.06832800
H        1.36947800       0.15309900      -1.23124700
H        0.14430600      -1.68607500      -1.88515900
H        1.22689800      -1.87471600       0.13846600
H       -1.43019700      -0.76895800       1.29081700
H        0.02999600      -1.00483100       2.25238100
H       -0.80282600      -2.38983200       1.55793900
