17
Properties=species:S:1:pos:R:3 pbc="F F F"
C        0.46041700       1.17840200       1.93396500
C       -0.01318200       0.18098300       0.86566300
C        0.43852200       0.60337400      -0.55136600
C        0.01406300      -0.38279700      -1.64735200
N       -1.43965600      -0.39773900      -1.83348900
O        0.46910200      -1.13210500       1.17688800
H        0.05158000       2.17005300       1.75182100
H        1.54671300       1.26107400       1.93996300
H        0.14465400       0.85880200       2.92419900
H       -1.11640000       0.11613500       0.89681200
H        1.53075200       0.70032200      -0.56548400
H        0.03547400       1.59639000      -0.77312200
H        0.40973400      -1.38902700      -1.40270000
H        0.48166300      -0.08652600      -2.59786800
H       -1.90188100      -0.71067300      -0.98316600
H       -1.69152500      -1.03605400      -2.58370200
H        1.43509500      -1.11925100       1.20710600
