21
Properties=species:S:1:pos:R:3 pbc="F F F"
C       -3.33436700       0.50628000      -0.91362000
C       -1.81322000       0.58655200      -0.88011000
C       -1.16669200      -0.73827100      -0.45645400
C        0.36729100      -0.71091100      -0.46366400
C        0.97186700       0.19885100       0.61850000
C        2.47530300       0.17726300       0.61236100
C        3.23243800      -0.06024300       1.68387900
H       -3.76706600       1.45925700      -1.21081400
H       -3.73401400       0.24705200       0.06486600
H       -3.67129600      -0.24985900      -1.62020500
H       -1.50749400       1.38371300      -0.19442900
H       -1.44068100       0.87325600      -1.86934700
H       -1.50694300      -1.53134000      -1.13170700
H       -1.52356500      -1.01396500       0.54185500
H        0.72580200      -0.39145600      -1.44860600
H        0.73851900      -1.73087100      -0.31891100
H        0.59637800      -0.09305900       1.60426400
H        0.63340500       1.23004500       0.44955500
H        2.95471300       0.38047500      -0.34614400
H        2.79280500      -0.27015800       2.65203200
H        4.31371200      -0.05021600       1.62224000
