15
Properties=species:S:1:pos:R:3 pbc="F F F"
N       -2.42475400      -0.74345800      -1.49255100
C       -1.11727300      -0.08454000      -1.49970200
C       -0.56467600       0.07127200      -0.10920400
C        0.75039900       0.11654100       0.17986900
C        1.26947300       0.30889100       1.52843400
C        2.57686600       0.35822300       1.82750700
H       -2.81480700      -0.78074100      -2.43053100
H       -3.07559200      -0.24917700      -0.88756200
H       -1.17488200       0.92288900      -1.97653800
H       -0.42455100      -0.66598200      -2.12600800
H       -1.29088700       0.18172600       0.69722100
H        1.48263300       0.00159500      -0.61975800
H        0.53274400       0.41551700       2.32527000
H        3.33388400       0.25558700       1.05854600
H        2.91600000       0.50047200       2.84580000
