17
Properties=species:S:1:pos:R:3 pbc="F F F"
C       -1.33361700      -0.70422800       1.84078900
N       -1.58656400      -0.47748900       0.41919000
C       -1.06133800       0.79531300      -0.10012300
C        0.47120700       0.82792800      -0.16819100
C        1.05360700      -0.30038500      -1.02856300
O        2.47061900      -0.22532900      -1.08949200
H       -1.83211500      -1.62407000       2.15303800
H       -1.69962200       0.11787900       2.48187300
H       -0.26287900      -0.81863100       2.02754300
H       -2.59313700      -0.51879500       0.24434900
H       -1.41433100       1.65851900       0.50402700
H       -1.47274900       0.93480000      -1.11074100
H        0.89278300       0.76875800       0.83988300
H        0.78538400       1.79810900      -0.57320800
H        0.62717200      -0.25620300      -2.05413800
H        0.79346500      -1.28120900      -0.60831100
H        2.73787000       0.65413800      -1.38618500
