15
Properties=species:S:1:pos:R:3 pbc="F F F"
C       -1.45283300       0.48752000      -1.62218900
C       -0.57540700       1.09757600      -0.82621600
C        0.03525000       0.53265900       0.44653400
C       -0.31022000      -0.93182500       0.68618800
C        0.56897900      -1.92477500       0.81456400
N        1.48048000       0.82315200       0.45936200
H       -1.84397000       0.98428000      -2.50219500
H       -1.80158000      -0.52032500      -1.43015400
H       -0.24693600       2.10734400      -1.07419600
H       -0.41379100       1.10404200       1.28979500
H       -1.37375000      -1.15297500       0.78372400
H        1.63661000      -1.75562700       0.72634600
H        0.24512100      -2.94087300       1.00424200
H        1.93932500       0.36675000      -0.32566400
H        1.90099100       0.47838900       1.31928600
