15
Properties=species:S:1:pos:R:3 pbc="F F F"
N       -1.91752100      -0.33697000      -0.31817600
C       -0.43946700      -0.23945700      -0.30211000
C        0.02044900       1.19903200      -0.10619000
C        0.76088400       1.87519700      -0.98400700
C        0.10754500      -1.17293400       0.80276500
O        1.52079900      -1.12629300       0.87823800
H       -2.29994800       0.26430600      -1.04472100
H       -2.30145400      -0.03326300       0.57455600
H       -0.07003400      -0.59796400      -1.28086100
H       -0.30072100       1.68682700       0.81465200
H        1.09822900       1.42068600      -1.90955600
H        1.05662300       2.90159700      -0.80232500
H       -0.23625200      -2.21073700       0.60839000
H       -0.28850400      -0.87874500       1.78716700
H        1.90185300      -1.15461100      -0.00871700
