15
Properties=species:S:1:pos:R:3 pbc="F F F"
C       -2.24127300       0.61555000      -0.97672100
C       -0.71833700       0.59639700      -0.94917200
C       -0.15503600      -0.18565700       0.24306600
C        1.37818600      -0.19500600       0.26275100
O        1.87890500      -0.90855600       1.38196200
H       -2.60573100       1.18052900      -1.83204300
H       -2.64297900       1.07380900      -0.07527800
H       -2.64353700      -0.39311500      -1.04408200
H       -0.34056200       1.62469300      -0.92024000
H       -0.34244300       0.15918100      -1.88063800
H       -0.52647200      -1.21485700       0.21852900
H       -0.52873400       0.25065500       1.17733000
H        1.76476100       0.84735600       0.27100100
H        1.77685300      -0.67923000      -0.64111000
H        1.47636600      -0.56828200       2.19129700
