18
Properties=species:S:1:pos:R:3 pbc="F F F"
N       -1.32152900      -0.75810000      -0.45233900
C       -1.56463500       0.56914800       0.13781900
C       -0.34800600       1.51025200       0.02596000
C        0.97101300       0.80850300       0.35110600
C        1.01677500      -0.68890100       0.46149300
C       -0.27022000      -1.49364400       0.27071500
C        1.66413300      -0.00297700      -0.70617800
H       -1.04135600      -0.64350100      -1.43038400
H       -1.83413000       0.43121700       1.19463900
H       -2.43476500       1.02491600      -0.35803900
H       -0.48554600       2.35999500       0.70296900
H       -0.30574900       1.93397500      -0.98536500
H        1.63005800       1.36239800       1.02273500
H        1.69986800      -1.09958200       1.20857900
H       -0.65951600      -1.78581600       1.25997200
H       -0.06502300      -2.42851300      -0.27371800
H        1.18338000      -0.08784900      -1.67636100
H        2.74911900       0.02518100      -0.74413600
