15
Properties=species:S:1:pos:R:3 pbc="F F F"
C       -0.89819300      -1.17115400       2.03414000
C       -1.24515800       0.16566500       1.38958000
C       -0.67942700       0.31815600      -0.02569100
C        0.82995800       0.38012600      -0.07350100
N        1.53544200       0.32317500      -1.16041400
O        0.77092000       0.18847900      -2.30678900
H       -1.31781500      -1.23890300       3.03574200
H        0.17932000      -1.30154800       2.11199300
H       -1.29071400      -1.99997500       1.44844500
H       -0.87576500       0.98102400       2.02163200
H       -2.33435900       0.27549200       1.35382900
H       -1.08458900       1.22980300      -0.48473000
H       -1.02057200      -0.50673700      -0.66170000
H        1.39076400       0.49367200       0.86058100
H        1.39519800       0.14036100      -3.05575100
