9
Properties=species:S:1:pos:R:3 pbc="F F F"
C       -2.97907900      -0.58801000      -0.09875200
C       -1.76720400      -0.53699300      -0.09022200
C       -0.33981900      -0.54205600      -0.09112900
C        0.40880600       0.56748300       0.09540500
C        1.84120900       0.54541600       0.09163600
N        2.99652300       0.55715000       0.09356000
H       -4.04201500      -0.60518900      -0.10160100
H        0.13915600      -1.50828600      -0.25359500
H       -0.05628600       1.53838600       0.25864800
