19
Properties=species:S:1:pos:R:3 pbc="F F F"
C       -0.12545000       2.60950600      -1.40705000
C       -0.31954500       1.56619700      -0.31465600
C        0.22473300       0.16461200      -0.69262600
C       -0.20304100      -0.83550700       0.30919900
C       -0.56486900      -1.64564600       1.13143700
C       -0.99693100      -2.62523800       2.12059100
C        1.75291700       0.15230200      -0.85625200
H       -0.56787900       3.55829400      -1.11057100
H       -0.59692000       2.29659900      -2.33695800
H        0.92883400       2.78498200      -1.61048800
H       -1.38697800       1.47664300      -0.09060900
H        0.16226800       1.90482300       0.60772900
H       -0.22399500      -0.12364900      -1.66094000
H       -0.41480600      -3.54477700       2.03693100
H       -2.05001100      -2.87780700       1.98339400
H       -0.87165800      -2.23652900       3.13296400
H        2.24644400       0.45985400       0.06290500
H        2.06327600       0.82940900      -1.64915800
H        2.10454400      -0.84519600      -1.10904900
