17
Properties=species:S:1:pos:R:3 pbc="F F F"
C       -1.82066900      -1.57457800      -0.56434900
C       -0.88708700      -0.61289400      -1.28919100
C        0.48921900      -0.46784600      -0.61949100
C        0.43704100       0.22899400       0.73419400
C        1.60219900       1.01773900       1.22468600
N        0.38037700       1.69338000       0.78280400
H       -2.76554000      -1.66654800      -1.09591900
H       -2.03826500      -1.23046300       0.44434300
H       -1.37960700      -2.56682500      -0.49014500
H       -1.36094600       0.37122600      -1.36088500
H       -0.74153800      -0.96168400      -2.31752000
H        1.15180200       0.09485100      -1.28676300
H        0.93979700      -1.46120600      -0.50242500
H       -0.19254600      -0.26089800       1.48624800
H        2.48273700       1.11013000       0.58524200
H        1.80807100       1.07991500       2.29446400
H        0.50917800       2.08935100      -0.15136000
