16
Properties=species:S:1:pos:R:3 pbc="F F F"
N       -2.41722400       1.22925300       0.19175200
C       -0.95291700       1.17594500       0.15227900
C       -0.45644500      -0.25776800       0.35269000
N        1.01651400      -0.30771100       0.32982800
C        1.61705300      -1.59045000      -0.03485500
C        1.64362700      -0.44397200      -0.98484200
H       -2.74517500       2.18440300       0.07507600
H       -2.76602400       0.87539600       1.07916600
H       -0.49350800       1.83579800       0.91708900
H       -0.61348200       1.55388500      -0.82299100
H       -0.90017000      -0.92024800      -0.41566900
H       -0.80217800      -0.63371600       1.32883600
H        0.94312600      -2.42333500      -0.25142100
H        2.52002000      -1.86286600       0.51487400
H        0.98762600      -0.48311300      -1.85802500
H        2.56683000       0.12047700      -1.12963200
