15
Properties=species:S:1:pos:R:3 pbc="F F F"
C       -2.54317700       0.02266500       1.00928200
N       -1.08503000      -0.01476500       0.91652600
C       -0.59374300      -0.73193500      -0.26633500
C        0.93938300      -0.71499300      -0.32168400
C        1.51351200       0.69519800      -0.44667200
O        2.43673300       0.98011800      -1.16670500
H       -2.83651900       0.54395300       1.92256300
H       -3.00174600      -0.98195900       1.02521000
H       -2.96001100       0.56278900       0.15517500
H       -0.69474600      -0.43457600       1.76389400
H       -1.00696700      -0.25415600      -1.16642500
H       -0.94765100      -1.78502600      -0.28632100
H        1.29913000      -1.33225900      -1.14859800
H        1.33893900      -1.15815600       0.60012500
H        1.01507200       1.47619500       0.20479000
