16
Properties=species:S:1:pos:R:3 pbc="F F F"
C       -0.66445400      -0.57825200      -1.56604900
C       -0.29247800      -0.74639000      -0.11890900
C       -0.26404100      -1.95200100       0.46485300
C        0.08387800       0.51750800       0.66520700
O       -0.66338000       1.65196400       0.21967500
C        1.59170200       0.81320800       0.55406100
H       -0.84487400      -1.53859800      -2.04230100
H        0.12704000      -0.06488500      -2.11538600
H       -1.56673800       0.02685700      -1.66154900
H       -0.50322600      -2.85208300      -0.08842800
H       -0.00318400      -2.06369700       1.51093400
H       -0.17553500       0.37288400       1.72977300
H       -0.36499400       1.91056000      -0.66243600
H        1.88662200       0.95576600      -0.48488500
H        2.18098800      -0.00585300       0.96007400
H        1.84330200       1.71889300       1.10183000
