16
Properties=species:S:1:pos:R:3 pbc="F F F"
C       -1.61538800      -0.83635000       0.95083500
C       -0.11311000      -0.55764500       0.76760600
C        0.27140100      -0.46345700      -0.72076200
C        0.04569700       0.79284500      -1.50850900
C        1.43624200       0.37122300      -1.15396400
O        0.25806100       0.62326200       1.47778600
H       -1.90321300      -1.76351400       0.45921800
H       -2.21723300      -0.03326000       0.52826800
H       -1.86286400      -0.92061800       2.00635500
H        0.46221700      -1.38512600       1.22768200
H        0.11802600      -1.39443100      -1.27010000
H       -0.37026800       1.65671900      -0.99694800
H       -0.26911700       0.69710000      -2.54262800
H        1.95186400       0.93961100      -0.38720800
H        2.07181200      -0.00658700      -1.94851500
H       -0.19476500       1.38431800       1.09036100
