17
Properties=species:S:1:pos:R:3 pbc="F F F"
C       -1.98341600      -0.03175100       0.88506600
C       -0.60646400      -0.00118700       0.27489400
C        0.01054100       1.10660500      -0.17434100
C       -0.51977300       2.50620500      -0.16536700
C        0.05240100      -1.37208700       0.19896200
C        1.38754300      -1.40427500      -0.39637600
C        2.49111600      -1.48490800      -0.88200200
H       -2.41618700       0.95915300       0.98321300
H       -1.95639800      -0.48875900       1.87566400
H       -2.66066100      -0.63598200       0.27830400
H        1.00710600       0.99477400      -0.59947300
H       -1.48987500       2.58929500       0.31705000
H       -0.61754400       2.88524800      -1.18462900
H        0.17243600       3.17299400       0.35111100
H       -0.60085500      -2.05449300      -0.36695400
H        0.10866700      -1.80133300       1.21157900
H        3.46162300      -1.53251500      -1.31087400
