14
Properties=species:S:1:pos:R:3 pbc="F F F"
O        0.26249100       1.73138700       1.05967800
C       -0.38057200       0.60318600       1.62764800
C       -0.03596300      -0.64672900       0.81885400
C       -0.45283700      -0.51830200      -0.64010500
C        0.49176700      -0.08188500      -1.68770800
O        0.12490300      -1.45167200      -1.55266100
H        0.08146200       2.51626500       1.59255700
H       -1.48096100       0.76355100       1.64343700
H       -0.06573700       0.47786000       2.68513600
H       -0.53260300      -1.51343500       1.27200100
H        1.04001500      -0.83518300       0.87265800
H       -1.52964400      -0.34050600      -0.80686600
H        1.53243200       0.14768000      -1.42963500
H        0.12151700       0.40843400      -2.59755300
