17
Properties=species:S:1:pos:R:3 pbc="F F F"
C       -1.18152900       0.29454300       1.56012900
C        0.32498200       0.15824600       1.52843500
C        1.15916000       0.96072700       0.57285900
C        1.04822900      -0.52569600       0.39824900
C        0.32794800      -1.15998400      -0.79503700
C       -0.48724800      -0.24826800      -1.59832200
C       -1.15170200       0.46330800      -2.31485400
H       -1.47985100       1.11131200       2.21675300
H       -1.64811400      -0.61566500       1.93715000
H       -1.58283500       0.49509900       0.57075400
H        0.77002300      -0.00004300       2.51349700
H        2.10395400       1.36331600       0.92692400
H        0.64024800       1.58567400      -0.14594900
H        1.92639700      -1.10047800       0.70058700
H       -0.30698900      -1.98985600      -0.45061300
H        1.07888300      -1.61362600      -1.45752000
H       -1.74075800       1.10701500      -2.92034000
