19
Properties=species:S:1:pos:R:3 pbc="F F F"
C       -3.23594200       1.11356900       1.15963900
C       -1.71645600       1.02730100       1.10759500
C       -1.20628600       0.39083700      -0.19691400
C        0.29246900       0.37786400      -0.28672700
C        1.03095200      -0.71800500      -0.54915000
C        2.48568100      -0.69663300      -0.64686000
C        3.23653500      -1.77573700      -0.91650300
H       -3.56594700       1.55836800       2.09606900
H       -3.68756000       0.12673900       1.08003500
H       -3.62253000       1.72237800       0.34441000
H       -1.35273500       0.44688700       1.96127500
H       -1.28810600       2.02975400       1.21190000
H       -1.61290700       0.96070800      -1.04482400
H       -1.59902300      -0.62646100      -0.29361400
H        0.79714300       1.33327400      -0.13345600
H        0.53691200      -1.67785800      -0.69969400
H        2.97101900       0.26706100      -0.48877300
H        2.78686700      -2.74820700      -1.07990900
H        4.31514600      -1.70782200      -0.97989800
