14
Properties=species:S:1:pos:R:3 pbc="F F F"
C        0.43552100      -1.93905600       0.92721500
C       -0.21447600      -0.63194500       0.47206200
O       -1.33994800      -0.32206400       0.82155700
C        0.60859000       0.25310900      -0.43486200
C       -0.10982000       1.05581500      -1.49236500
C        0.44823800       1.74870900      -0.30652600
H       -0.20423100      -2.46812100       1.62744400
H        1.39603800      -1.74582500       1.40311100
H        0.62358000      -2.58551800       0.07043200
H        1.60396300      -0.11151500      -0.68993300
H       -1.18666300       0.93243400      -1.54447500
H        0.38963800       1.18059200      -2.44816500
H       -0.24887900       2.09663100       0.44885000
H        1.33781400       2.35804200      -0.43287100
