18
Properties=species:S:1:pos:R:3 pbc="F F F"
C        0.17328700       1.64361700       1.41572300
C        1.06781900       0.52857600       0.86350400
C       -0.21711700      -0.30515500       0.68966500
N       -1.03939800       0.89196100       1.03100100
C       -0.53808700      -0.94633500      -0.66059300
C       -0.12822800      -0.32829900      -1.96150400
C        0.53616300      -1.58296200      -1.48920100
H        0.25956900       2.62777200       0.92710200
H        0.26997200       1.79981300       2.50296400
H        1.80757400       0.12000800       1.55695900
H        1.57602900       0.78383700      -0.06912100
H       -0.29805000      -1.08635900       1.47582100
H       -1.69782300       0.74090800       1.79873500
H       -1.50366600      -1.45702400      -0.67365700
H        0.44776300       0.59120100      -1.93843500
H       -0.81752200      -0.40258400      -2.79677000
H        1.56152000      -1.50813700      -1.14001600
H        0.30740300      -2.50982200      -2.00615700
