21
Properties=species:S:1:pos:R:3 pbc="F F F"
C       -0.18310100      -2.43038700      -0.24050300
C       -0.63704100      -1.19909000      -1.01448300
C       -0.19285800       0.16190100      -0.41235400
C       -0.75436100       0.36086300       0.98017000
C       -1.70921600       1.23902000       1.28731400
C        1.34784900       0.31139400      -0.42342500
C        1.80850200       1.71484300      -0.05146100
H       -0.52844400      -3.33664600      -0.73433900
H       -0.58090600      -2.43141700       0.77191200
H        0.90155500      -2.48269600      -0.17438000
H       -1.72941500      -1.20673300      -1.08800100
H       -0.25924000      -1.26164500      -2.04143500
H       -0.61236900       0.94585500      -1.06331100
H       -0.33649900      -0.26889000       1.76645900
H       -2.14746500       1.88594300       0.53573300
H       -2.07985400       1.33773000       2.30063600
H        1.72142900       0.05738000      -1.42149900
H        1.79312600      -0.41237100       0.26703700
H        1.41171700       2.45373100      -0.74522500
H        2.89443300       1.78396500      -0.07277200
H        1.47328900       1.98452700       0.94763400
