19
Properties=species:S:1:pos:R:3 pbc="F F F"
N       -1.02897500       0.85538900       1.90169100
C       -1.39882600      -0.22069200       0.97836400
C       -0.82051300       0.01628100      -0.42069100
C        0.72449400       0.05851800      -0.46740100
C        1.34591600      -1.31687900      -0.19184100
C        1.20742500       0.60611700      -1.81764800
H       -1.45137700       0.70596500       2.81405800
H       -1.33766100       1.75589400       1.54434700
H       -2.50224400      -0.32563200       0.89297500
H       -1.03459800      -1.17392500       1.38757700
H       -1.21025500       0.96619400      -0.80479900
H       -1.18827200      -0.76253600      -1.09752300
H        1.06326900       0.74846600       0.32018600
H        1.03842200      -2.04395700      -0.94162000
H        1.04944100      -1.69484600       0.78397400
H        2.43232600      -1.25797200      -0.21154600
H        0.88977100      -0.03529500      -2.63776800
H        2.29349800       0.66729300      -1.84599900
H        0.80953400       1.60255500      -2.00040500
