13
Properties=species:S:1:pos:R:3 pbc="F F F"
C       -1.45957500       0.43066900       0.90140700
C        0.04486500       0.26137300       0.88873200
O        0.77810000       0.98502000      -0.10636200
C        0.79151600      -0.44499300      -0.18414000
C        0.13951900      -1.07893600      -1.39462900
H       -1.73764800       1.34184600       1.42942900
H       -1.94166300      -0.40508400       1.40939600
H       -1.86081000       0.49428200      -0.10653900
H        0.51650300       0.29886500       1.88661000
H        1.76699100      -0.88444300       0.08939600
H       -0.77001600      -0.55553100      -1.67731800
H       -0.11220500      -2.12184700      -1.20023000
H        0.81609900      -1.05693100      -2.24807500
