16
Properties=species:S:1:pos:R:3 pbc="F F F"
C       -0.75865600      -2.23947100       0.00057400
O       -1.22027800      -0.92350900       0.26763300
C       -0.81900600       0.03228800      -0.70393700
O        0.59151100       0.18982100      -0.71825100
C        1.15026600       0.71429400       0.50129700
C        1.02153700       2.23230700       0.58363300
H       -1.11328800      -2.89204600       0.80406900
H        0.34134800      -2.27720000      -0.03727300
H       -1.15135600      -2.60936000      -0.96324000
H       -1.33546200       0.98848600      -0.45701400
H       -1.12277500      -0.29029200      -1.72724500
H        2.21230400       0.42205200       0.50976200
H        0.66261300       0.23179100       1.36685300
H        1.49989300       2.71014300      -0.26871000
H        1.49369700       2.60655200       1.49021500
H       -0.02168600       2.54287000       0.59812600
