13
Properties=species:S:1:pos:R:3 pbc="F F F"
C       -2.37309200       1.44428500       0.18101300
C       -1.35478300       0.63639600      -0.11490700
C       -0.53837000      -0.10658300       0.90665200
O        0.86840400      -0.15276200       0.53902800
N        1.06005200      -0.88862800      -0.61013100
C        2.29538200      -0.94947200      -0.98608000
H       -2.94135200       1.94125100      -0.59583200
H       -2.66866700       1.63328200       1.20732800
H       -1.07796100       0.46825000      -1.15567500
H       -0.91187900      -1.14388200       1.01972400
H       -0.58094000       0.37406200       1.89333100
H        2.52529100      -1.51903500      -1.88570100
H        3.11309000      -0.45919600      -0.44455100
