10
Properties=species:S:1:pos:R:3 pbc="F F F"
C       -1.85125300      -1.13936600       0.39536900
O       -0.49796500      -0.73880300       0.64319700
C       -0.00287500       0.17866800      -0.22412800
O       -0.65987600       0.63388300      -1.15230100
C        1.38401400       0.56564300       0.06012700
C        2.52211400       0.94635700       0.21590900
H       -2.12175300      -1.87182000       1.15867600
H       -1.93483100      -1.58828100      -0.60102900
H       -2.51802000      -0.27158000       0.45574000
H        3.52533200       1.26322600       0.37578900
