18
Properties=species:S:1:pos:R:3 pbc="F F F"
C       -1.79539500       0.74825700       0.33911300
C       -0.26094100       0.69637300       0.28423100
C        0.29053300      -0.65111300      -0.27560300
C        1.82317900      -0.61508300      -0.33893900
C       -0.19110100      -1.85688100       0.54134600
O        0.22078500       1.78299100      -0.51698100
H       -2.19364500       0.04139400       1.06329200
H       -2.23484500       0.51818300      -0.63093200
H       -2.12628700       1.74342100       0.62707800
H        0.14517600       0.86098400       1.29944300
H       -0.08890300      -0.76480400      -1.30502600
H        2.25235800      -0.56605000       0.65998600
H        2.16125100       0.25686300      -0.89305600
H        2.21198700      -1.50656500      -0.82731400
H        0.08841200      -1.75737800       1.58857700
H        0.25485200      -2.77516500       0.16534800
H       -1.27212400      -1.96693900       0.49000500
H       -0.16215800       1.72281200      -1.40244500
