21
Properties=species:S:1:pos:R:3 pbc="F F F"
C       -3.25327100      -0.44438900       0.54609900
C       -1.76389900      -0.46717100       0.69734900
C       -0.90940600      -0.28733100      -0.31716000
C        0.60649300      -0.30815900      -0.24057600
C        1.17692600       1.02309300      -0.80122300
C        2.67288300       0.97878200      -1.08586300
C        1.14610000      -0.61748000       1.15903800
H       -3.69184600      -1.39094100       0.86709800
H       -3.54849900      -0.26530600      -0.48539100
H       -3.69596900       0.33494900       1.16896500
H       -1.38971900      -0.64199400       1.70519700
H       -1.31544600      -0.10663000      -1.31421900
H        0.94898600      -1.11335100      -0.91693100
H        0.96029000       1.83473500      -0.09952800
H        0.64652300       1.26773000      -1.72787500
H        3.24838300       0.80657500      -0.17887900
H        3.00806200       1.91987600      -1.51736300
H        2.91439500       0.18402900      -1.78937300
H        0.86602600       0.15609400       1.87146700
H        2.23187600      -0.68176900       1.14719900
H        0.76198300      -1.56806400       1.52365100
