14
Properties=species:S:1:pos:R:3 pbc="F F F"
C       -2.23256500       0.46133000      -1.54903200
O       -0.92560500       0.88546600      -1.21196600
C       -0.25299700       0.11362200      -0.31388900
C        0.98862200       0.43069700       0.09977600
C        1.77382900      -0.41593500       1.07714000
O        0.95509800      -1.32721400       1.79397400
H       -2.61139800       1.12350900      -2.33246800
H       -2.90863800       0.51643900      -0.67974900
H       -2.23473500      -0.57453800      -1.92335300
H       -0.78049700      -0.77586900       0.05583400
H        1.47617500       1.31336300      -0.30694200
H        2.32139800       0.24032200       1.79029500
H        2.54405900      -1.01362700       0.55675600
H        0.29635500      -0.83389200       2.29959200
