17
Properties=species:S:1:pos:R:3 pbc="F F F"
C       -0.42682000      -3.06248200       1.02721900
C        0.12683000      -2.45482400      -0.22339600
C       -0.01705800      -1.18770400      -0.63425700
C       -0.79071800      -0.10305900       0.07787600
C       -0.17084900       1.22135700      -0.05471800
C        0.33284000       2.31610000      -0.15826800
C        0.94265600       3.63400400      -0.28171000
H       -1.25579700      -3.73474300       0.79588400
H       -0.79231600      -2.31320900       1.72542500
H        0.33284700      -3.65931300       1.53181300
H        0.69693700      -3.13495400      -0.85655900
H        0.44333700      -0.89678000      -1.57717500
H       -0.90933900      -0.34337000       1.14263700
H       -1.81252200      -0.05394100      -0.33525600
H        0.33803600       4.39036800       0.22204700
H        1.03904100       3.92105700      -1.33042000
H        1.93849100       3.64452900       0.16513400
