14
Properties=species:S:1:pos:R:3 pbc="F F F"
O       -0.89397100       0.04928000      -2.02212000
C       -0.90737200       0.01199900      -0.60605400
C       -0.02145100      -1.09618200       0.02298800
C        0.91057500       0.01265500       0.58226600
C       -0.03112100       1.10924900       0.02476200
O        1.09300100       0.00959200       1.98679600
H       -1.29012900      -0.75734900      -2.37708600
H       -1.96136000       0.00017600      -0.24118100
H        0.44302100      -1.77919300      -0.69138400
H       -0.52160400      -1.68881800       0.79290500
H        1.91348800       0.01410900       0.12485700
H        0.42102200       1.79246800      -0.69539500
H       -0.53626900       1.69857200       0.79398400
H        0.23579700       0.02273000       2.43212100
