19
Properties=species:S:1:pos:R:3 pbc="F F F"
C       -0.46569100       0.76383500      -2.75291900
C        0.18690400      -0.42665700      -2.12415300
C        0.07820700      -0.83795700      -0.85365800
C       -0.74597000      -0.20033100       0.23857200
C        0.06800900       0.16466800       1.46875500
C        0.16642600       1.43433200       1.88579900
C        0.73082700      -0.96330700       2.21015300
H       -1.13305300       0.45411800      -3.55945300
H        0.28449800       1.41907300      -3.19836400
H       -1.04469800       1.34628100      -2.04128800
H        0.81749000      -1.01200400      -2.79441500
H        0.62790100      -1.73276000      -0.56026600
H       -1.52647400      -0.91512300       0.54330000
H       -1.26202600       0.68745400      -0.13445300
H       -0.31282100       2.24233200       1.34688000
H        0.73320600       1.69156900       2.77214000
H        0.00006400      -1.71830300       2.50335200
H        1.23429500      -0.60712200       3.10538400
H        1.46934200      -1.46301700       1.58189100
