14
Properties=species:S:1:pos:R:3 pbc="F F F"
N       -1.51225100       0.11916100      -0.41404800
C       -0.03461600       0.12565600      -0.41531100
C        0.49800400       1.42862800       0.06013800
C        0.88382700       2.50937700       0.43960200
C        0.50053300      -1.04525900       0.43392700
N        0.08245000      -2.31408300      -0.15874600
H       -1.86742400       0.86618600      -1.00690500
H       -1.86315100       0.27288100       0.52920900
H        0.29950500      -0.01569200      -1.45992100
H        1.24179900       3.45231000       0.77405100
H        0.14267500      -0.93218100       1.47850300
H        1.59857700      -1.00222900       0.47291500
H       -0.91699600      -2.29504600      -0.35109700
H        0.28713900      -3.09218600       0.46267300
