15
Properties=species:S:1:pos:R:3 pbc="F F F"
O       -0.64463600      -1.73213100       1.98178000
C       -0.83358600      -0.58115100       1.17884200
C        0.45921800      -0.27431900       0.42197300
C        0.34010800       0.96769200      -0.44866400
C        1.14141500       1.11122300      -1.69648300
N       -0.29963200       0.86150400      -1.76500100
H       -1.45705800      -1.93592500       2.46211300
H       -1.12544400       0.28382500       1.81334500
H       -1.67078000      -0.74473300       0.46741800
H        0.73009100      -1.13743000      -0.19440400
H        1.27195800      -0.14532200       1.14603800
H        0.08011900       1.88640500       0.09224600
H        1.80401800       0.29584300      -1.99315800
H        1.45876800       2.10096500      -2.02791000
H       -0.48008400      -0.11777400      -1.99893500
