17
Properties=species:S:1:pos:R:3 pbc="F F F"
C       -2.44707900      -0.04352400       0.20134500
C       -0.94857300       0.02346300       0.07713400
C       -0.29611000       1.19541800       0.01701300
C        1.19504800       1.32247600      -0.10542700
C        1.89906100      -0.00059300      -0.15824200
C        1.26171900      -1.17352200      -0.09818800
C       -0.22727700      -1.30209000       0.02873900
H       -2.89034700       0.94878900       0.23900500
H       -2.74042800      -0.58171000       1.10450800
H       -2.88643400      -0.58038900      -0.64146400
H       -0.86309300       2.12551500       0.05955300
H        1.59025100       1.92013300       0.73342300
H        1.44909800       1.91384000      -1.00135700
H        2.98491900       0.02284800      -0.25089700
H        1.83034100      -2.10254500      -0.14173300
H       -0.47441300      -1.88858800       0.92938400
H       -0.62063000      -1.90766200      -0.80466700
