21
Properties=species:S:1:pos:R:3 pbc="F F F"
C       -1.99262200       0.99262800      -2.33462700
C       -1.18644700      -0.10762700      -1.65020200
C       -0.70862500       0.29324600      -0.27623400
C        0.47139700      -0.01919800       0.29163600
C        0.79035300       0.45660900       1.69891600
C        1.03733500      -0.68391600       2.68531000
C        1.54384100      -0.83294900      -0.38483500
H       -2.35279000       0.66069600      -3.30642100
H       -1.38807100       1.88385900      -2.48800800
H       -2.85554100       1.27594600      -1.73510700
H       -0.34323400      -0.39274700      -2.28744500
H       -1.81653000      -1.00532400      -1.56719700
H       -1.41674000       0.88024600       0.30946500
H       -0.02737100       1.08373300       2.06835400
H        1.68384000       1.09442100       1.66883400
H        0.16376700      -1.32707100       2.76667500
H        1.25934300      -0.29180700       3.67596100
H        1.87799100      -1.29971400       2.37267000
H        1.44640600      -0.82236400      -1.46803500
H        1.50409300      -1.87561900      -0.06255600
H        2.53344500      -0.45701300      -0.12697500
