19
Properties=species:S:1:pos:R:3 pbc="F F F"
C       -1.22447400       1.74945300      -0.42363000
C       -1.43208600       0.49894900       0.42288200
C       -0.81184000      -0.78632500      -0.14909400
C        0.74130200      -0.92987500      -0.09446400
N        1.45276800      -0.08040200      -1.06816300
C        1.31150300      -0.69465800       1.30660300
H       -1.81292900       2.57588700      -0.02995200
H       -1.53200400       1.58166100      -1.45378100
H       -0.18371900       2.06432100      -0.43213900
H       -2.50976400       0.33038400       0.52862200
H       -1.05584000       0.67613300       1.43542500
H       -1.13320700      -0.90697800      -1.18969000
H       -1.23832400      -1.63359900       0.39964900
H        0.95249300      -1.98258900      -0.37093200
H        1.43345600       0.89366000      -0.77891600
H        1.02362900      -0.15426000      -1.98704300
H        1.19138700       0.34210800       1.61546400
H        2.37456600      -0.92355600       1.32625100
H        0.81444800      -1.32562100       2.04040200
