12
Properties=species:S:1:pos:R:3 pbc="F F F"
C       -2.25085200       0.37467600      -0.00742100
C       -0.75931600       0.30505400      -0.00263100
C        0.12584600       1.35533400      -0.00068900
C        1.49684500       0.94431400       0.00396500
C        1.65113800      -0.41550400       0.00554800
S        0.10213800      -1.22688200       0.00131300
H       -2.58273700       1.41132000      -0.00865400
H       -2.68109400      -0.11508400       0.86838000
H       -2.67546800      -0.11534200      -0.88582900
H       -0.18733000       2.39419900      -0.00250800
H        2.32884600       1.64047600       0.00603300
H        2.58161000      -0.96870400       0.00893700
