11
Properties=species:S:1:pos:R:3 pbc="F F F"
O       -2.16484300       0.97825400      -1.30678300
C       -0.85302100       0.48264300      -1.45588700
C       -0.33539900       0.01494200      -0.12596900
C        0.96469600      -0.20290600       0.13767800
C        1.43832400      -0.68091900       1.40533200
N        1.84706100      -1.06916700       2.41330300
H       -2.51420300       1.26933000      -2.15853300
H       -0.18714900       1.25838500      -1.89346900
H       -0.84715900      -0.36355800      -2.18204400
H       -1.08178400      -0.16459900       0.64517500
H        1.73201400      -0.02398700      -0.61690700
