16
Properties=species:S:1:pos:R:3 pbc="F F F"
C        0.76283700       1.90044300      -0.70070100
C        1.11659100       0.46596000      -0.32163000
C       -0.07292100      -0.32588800       0.23577000
C       -0.68875100       0.18243700       1.53207300
C       -0.20873900      -1.76375600      -0.11248900
O       -1.01724400      -0.77596000      -0.74844100
H        1.62297900       2.40552200      -1.13550900
H        0.44320500       2.47266200       0.16799100
H       -0.04373400       1.91570500      -1.42924600
H        1.92583500       0.47022300       0.41949300
H        1.50426900      -0.05398800      -1.20300500
H       -1.53167200      -0.43749200       1.82710100
H       -1.04691200       1.20483400       1.42218300
H        0.04181300       0.17331500       2.34120000
H       -0.75564800      -2.44798000       0.54930200
H        0.52371800      -2.25030600      -0.77012000
