15
Properties=species:S:1:pos:R:3 pbc="F F F"
N        0.03219000       0.29771800       2.32626600
C       -0.23175800       0.40175100       0.89804700
C        0.72912100       1.10773300      -0.02656300
C        0.59754300      -0.39657800      -0.05774400
C       -0.01132600      -1.09401900      -1.27580000
O       -1.03576400      -0.33575600      -1.89139300
H       -0.17942200       1.17423200       2.79896200
H        1.00683900       0.06501900       2.49719800
H       -1.29928400       0.50812400       0.67275500
H        1.63944300       1.52385000       0.39292100
H        0.31968300       1.65225700      -0.87100500
H        1.42943800      -0.94627000       0.38743900
H       -0.40303400      -2.09279600      -0.97866000
H        0.76484900      -1.27230000      -2.03731300
H       -1.71920900      -0.12341800      -1.24265500
