14
Properties=species:S:1:pos:R:3 pbc="F F F"
N       -1.17656900       1.50168700       0.30232600
C       -1.96342400       0.27522800       0.17008200
C       -0.51339400       0.21054500       0.51421700
C        0.51550400      -0.20642600      -0.51211500
N        1.17271200      -1.50145200      -0.30537400
C        1.96531000      -0.27916300      -0.16884900
H       -1.37297800       1.96193500       1.19362600
H       -2.29049500       0.04092000      -0.84408600
H       -2.70152600       0.06840700       0.94756200
H       -0.25940800      -0.03973000       1.55136400
H        0.26279600       0.04859700      -1.54837700
H        1.36625600      -1.95946700      -1.19847100
H        2.70374600      -0.07284300      -0.94619300
H        2.29462800      -0.05056700       0.84591000
