11
Properties=species:S:1:pos:R:3 pbc="F F F"
N       -2.50745300       1.47371800       0.35692300
C       -1.36126800       1.38318100       0.33510300
C        0.10388600       1.30828400       0.31703400
C        0.60157900      -0.03284000      -0.00766600
C        1.03539400      -1.12955800      -0.27357700
C        1.54501200      -2.45520300      -0.59498200
H        0.48263900       1.62282900       1.30080900
H        0.48266000       2.03787100      -0.41402800
H        1.05054300      -2.85320000      -1.48232600
H        1.37057300      -3.14632100       0.23106000
H        2.61814000      -2.42038800      -0.78944900
