16
Properties=species:S:1:pos:R:3 pbc="F F F"
C       -2.30134700       0.15338200      -1.14607500
C       -1.45432600       0.40528700      -0.14773300
C       -0.49950700      -0.60562600       0.43481800
C        0.94162200      -0.12695900       0.42655600
C        1.63503700       0.03317700       1.56175400
C        1.54605100       0.14630600      -0.92184600
H       -2.97769200       0.91538100      -1.51381700
H       -2.34421000      -0.81986400      -1.62153700
H       -1.43825900       1.39655800       0.30536100
H       -0.57642500      -1.54450000      -0.12661000
H       -0.79846300      -0.82534100       1.46738300
H        1.18599200      -0.16379500       2.52749100
H        2.66567800       0.36567800       1.54700900
H        0.97611500       0.91136500      -1.44986700
H        1.52517100      -0.74956100      -1.54375700
H        2.57691700       0.48066900      -0.83650200
