17
Properties=species:S:1:pos:R:3 pbc="F F F"
C       -1.23202200       0.00744500      -2.38285200
C       -1.06086000       0.00690900      -0.86775100
C       -0.14656000      -1.09291500      -0.28582400
C        0.81495800      -0.00713900       0.25483400
C       -0.12769600       1.09294400      -0.29005400
C        1.05152800      -0.00612800       1.69866200
C        1.24239400      -0.00452600       2.89254800
H       -1.78818800      -0.86906500      -2.71054900
H       -0.26867200       0.00092300      -2.88906700
H       -1.77585000       0.89186900      -2.71026400
H       -2.05280500       0.01605700      -0.39436300
H        0.30307600      -1.76028400      -1.02540700
H       -0.61635700      -1.70438400       0.48679000
H        1.78752300      -0.01656400      -0.26225500
H        0.33378300       1.74855600      -1.03287600
H       -0.58608100       1.71645400       0.47979900
H        1.41312200      -0.00309600       3.94081200
