19
Properties=species:S:1:pos:R:3 pbc="F F F"
C       -1.22293500      -2.50318900      -1.04915600
C       -0.41289500      -2.06100300       0.12935400
C       -0.23057100      -0.80580700       0.56262800
C       -0.82713700       0.44387000      -0.02700200
C        0.12789400       1.63380500      -0.11617600
C        1.06682000       1.99695900       0.99362400
C        1.60410500       1.45729300      -0.29487300
H       -0.64154700      -3.17333000      -1.68352500
H       -1.56305700      -1.66853000      -1.65675300
H       -2.10353000      -3.06137300      -0.72396100
H        0.06833000      -2.86631800       0.68515200
H        0.38578800      -0.66270100       1.45017000
H       -1.69545100       0.74216100       0.58192700
H       -1.22695900       0.23808100      -1.02633800
H       -0.30831600       2.48339900      -0.64606400
H        1.10936000       1.35688800       1.86872500
H        1.21846900       3.05088100       1.20467500
H        1.99835300       0.44659000      -0.28964800
H        2.12687700       2.14268200      -0.95475700
