15
Properties=species:S:1:pos:R:3 pbc="F F F"
C       -0.47410500       0.27629800       1.68175900
C       -0.82467200       0.37209300       0.21243900
C        0.06110000       1.12139700      -0.74207100
C       -0.06077900      -0.37216000      -0.84979000
C        1.11332200      -1.27046600      -0.52495300
H       -0.87152000       1.13028000       2.22998100
H        0.60200300       0.25567400       1.83498400
H       -0.89463400      -0.62453200       2.12858000
H       -1.89634200       0.46868300       0.02601000
H        0.99190400       1.52192500      -0.35373600
H       -0.40794800       1.73280900      -1.50732900
H       -0.66549600      -0.73074200      -1.68550600
H        1.73429800      -0.84691500       0.26055800
H        1.74192200      -1.41702600      -1.40310900
H        0.77660900      -2.25313200      -0.19473900
