14
Properties=species:S:1:pos:R:3 pbc="F F F"
O        0.34533600       1.22693700       0.50116500
C        1.29524700       0.39874900      -0.16933900
C        0.99159500      -1.08592900       0.05327200
C       -0.46782300      -1.36466700      -0.16957200
C       -1.36937800      -0.37726700      -0.18070900
C       -0.98908700       1.06278900       0.02926900
H        2.28851000       0.66564500       0.22461400
H        1.29498200       0.62916100      -1.25611000
H        1.27272200      -1.38317400       1.07320600
H        1.60339700      -1.70302300      -0.61703200
H       -0.77631500      -2.40023200      -0.31117400
H       -2.42341200      -0.59392400      -0.35268400
H       -1.65455200       1.53528200       0.77289600
H       -1.13134600       1.63272400      -0.92056700
