13
Properties=species:S:1:pos:R:3 pbc="F F F"
C       -1.96847600       0.70941300      -1.23389300
C       -0.85579300       0.89537400      -0.52219900
C       -0.58366000       0.23936100       0.80646200
O        0.83170700       0.22005400       1.13559500
N        1.65959800      -0.61151900       0.43749100
C        1.19060600      -1.34621300      -0.51580300
H       -2.13146000       1.23235000      -2.16803600
H       -2.74584400       0.02790400      -0.90598000
H       -0.09520700       1.58883100      -0.87909200
H       -1.00534500      -0.77980300       0.86647300
H       -1.03868000       0.83005100       1.61960000
H        1.90074000      -1.99188700      -1.03454600
H        0.14888700      -1.37486300      -0.85302100
