21
Properties=species:S:1:pos:R:3 pbc="F F F"
C       -1.19813900       1.09571900       1.68098500
C        0.20844200       0.54528800       1.48744800
C        0.28418300      -0.56137300       0.40823500
C       -0.12342100      -0.04983000      -0.97766200
C        0.50207800       0.97459700      -1.57342400
C       -1.25650100      -0.77534300      -1.64910700
C        1.68922800      -1.18342400       0.36849100
H       -1.21053200       1.86098100       2.45461300
H       -1.89008200       0.30935300       1.97739000
H       -1.57294500       1.54071100       0.76205500
H        0.57350400       0.13632400       2.43609000
H        0.88814900       1.36113400       1.22143600
H       -0.42451400      -1.35466700       0.69431000
H        1.32100700       1.49323100      -1.09031800
H        0.20626500       1.31654200      -2.55750900
H       -1.02553600      -1.83618000      -1.75777200
H       -1.46579700      -0.36815600      -2.63548800
H       -2.16665700      -0.70980200      -1.05074900
H        2.43510400      -0.44557800       0.08015600
H        1.73124000      -2.00009300      -0.34911500
H        1.96556800      -1.57760800       1.34510900
