14
Properties=species:S:1:pos:R:3 pbc="F F F"
C       -2.40326700       1.01871500      -0.28765500
C       -1.30247800       0.26707100      -0.29512800
C       -0.42883500       0.03711400       0.90815600
C        1.03313400       0.44312800       0.66602300
C        1.76439300      -0.45068000      -0.33018600
O        1.31673600      -1.46074800      -0.80744800
H       -3.00564700       1.14037400      -1.17939000
H       -2.73498000       1.52975000       0.60910500
H       -0.99553500      -0.23483100      -1.21166900
H       -0.45302900      -1.02836200       1.16804400
H       -0.82195100       0.58727700       1.76869300
H        1.59119900       0.41311800       1.61072500
H        1.09688100       1.48100400       0.31990100
H        2.81149900      -0.09444200      -0.59308200
