17
Properties=species:S:1:pos:R:3 pbc="F F F"
C       -1.99824700       0.96674300       0.66156000
C       -0.49664000       0.81148000       0.54828100
C        0.25465300       1.50654800      -0.55030100
C        0.11147300       0.01154500      -0.57140900
C        1.33024900      -0.88101200      -0.31680100
N        0.97879400      -2.23066500       0.14790400
H       -2.25909800       1.88221900       1.19235200
H       -2.44030100       0.13391200       1.20827000
H       -2.46321800       1.00614300      -0.32101900
H        0.02133000       0.75567100       1.50778100
H        1.23024300       1.92152800      -0.31491400
H       -0.31505100       2.08168800      -1.27335400
H       -0.59075700      -0.38299200      -1.30858500
H        1.92090300      -0.97773900      -1.23996600
H        1.98414100      -0.41056400       0.43052100
H        0.41573700      -2.70976200      -0.55066600
H        0.43557800      -2.17728300       1.00627100
