12
Properties=species:S:1:pos:R:3 pbc="F F F"
C       -2.05403800       0.60414400       0.77351000
N       -0.61072200       0.52983100       0.67996100
C        0.04724800      -0.22148700      -0.28437900
N       -0.53593600      -0.93623800      -1.20292400
C        1.50206200      -0.15751400      -0.20066300
C        2.70549600      -0.08421200      -0.10517800
H       -2.32236900       1.25281700       1.60647400
H       -2.50375600      -0.38340700       0.94703300
H       -2.50236200       1.01524700      -0.14171500
H       -0.06009700       1.05233800       1.35098000
H       -1.55631600      -0.89058000      -1.14538200
H        3.76689700      -0.04715700      -0.05638500
