17
Properties=species:S:1:pos:R:3 pbc="F F F"
C       -3.17653800       1.03643800       0.53281200
C       -1.75965400       0.70990800       0.63293300
C       -0.58433100       0.43496000       0.71340600
C        0.84576800       0.12469400       0.83064900
C        1.44740100      -0.45622700      -0.43858400
C        2.54293800       0.07771700      -0.99431300
C        0.77147200      -1.67047900      -1.00843200
H       -3.35518800       1.74349500      -0.27921300
H       -3.53743300       1.48663900       1.45933400
H       -3.76952500       0.14072600       0.33870800
H        0.98193000      -0.59701600       1.65189300
H        1.39203300       1.03108300       1.12116300
H        3.01656400       0.95666200      -0.57384500
H        2.98417800      -0.34972000      -1.88630300
H       -0.26455400      -1.44708400      -1.26358400
H        0.75073300      -2.48020900      -0.27745300
H        1.27893300      -2.02664300      -1.90152100
