15
Properties=species:S:1:pos:R:3 pbc="F F F"
C       -2.16240600       0.78130600       0.97664800
C       -0.64398900       0.69345000       0.91185500
C       -0.15582600      -0.17790200      -0.24187500
O        1.26808100      -0.20199800      -0.23714100
C        1.81986100      -0.99159800      -1.26908300
H       -2.48121200       1.39898400       1.81330600
H       -2.60863800      -0.20413000       1.10005000
H       -2.56992300       1.21714800       0.06598600
H       -0.25710300       0.29252500       1.85394300
H       -0.22094900       1.69774100       0.80991200
H       -0.52535500       0.21162000      -1.21613800
H       -0.55294800      -1.21292200      -0.15011600
H        2.91051600      -0.94743100      -1.18909400
H        1.51826700      -0.62264500      -2.26730600
H        1.49685500      -2.04644300      -1.18868300
