11
Properties=species:S:1:pos:R:3 pbc="F F F"
C       -2.24064200       0.35020100      -0.00593200
C       -0.75064200       0.27374000      -0.00210500
C        0.11709900       1.33624300      -0.00092600
C        1.49933200       0.93251400       0.00288100
N        1.80908500      -0.33459100       0.00481700
S        0.08592600      -1.25935200       0.00138000
H       -2.57447400       1.38605800      -0.00693800
H       -2.66576600      -0.14241600       0.86975400
H       -2.66124000      -0.14262200      -0.88369600
H       -0.20570800       2.37289100      -0.00267800
H        2.31788900       1.66166900       0.00424600
