14
Properties=species:S:1:pos:R:3 pbc="F F F"
C        1.44952300       1.19943400       1.27928500
C        0.86980300       0.18791400       0.28354100
C       -0.64492300       0.42408600       0.03516500
C       -1.22130600      -0.56085500      -0.98247200
O       -1.93448300      -0.23284100      -1.89655400
O        1.08242100      -1.14583400       0.75098600
H        2.50713000       1.00833800       1.44484500
H        0.94205400       1.13813100       2.24117800
H        1.34293800       2.21656900       0.90889600
H        1.40865300       0.26984800      -0.67803000
H       -1.18652200       0.29449700       0.98084400
H       -0.82522800       1.44954800      -0.29733600
H       -0.93687200      -1.64204000      -0.81515200
H        0.84576200      -1.20896800       1.68617900
