10
Properties=species:S:1:pos:R:3 pbc="F F F"
C       -0.45107900       1.26960400      -0.00279000
C        0.86659200       1.03167300       0.00201000
O        1.41927000      -0.25625300       0.00516700
C        0.45108200      -1.26960500       0.00278000
C       -0.86659400      -1.03167300      -0.00200600
O       -1.41927000       0.25625400      -0.00515700
H       -0.88063000       2.26997800      -0.00525700
H        1.61886000       1.81867500       0.00385200
H        0.88062900      -2.26997900       0.00521400
H       -1.61886100      -1.81867400      -0.00385300
