15
Properties=species:S:1:pos:R:3 pbc="F F F"
C        0.53782200      -0.19951200       1.57900700
C        0.31262700       0.10517900       0.10453500
C       -1.11738600       0.50236800      -0.30784700
N       -2.09933800      -0.57972900      -0.14755500
C        1.22795200      -0.47584500      -0.91081200
O        1.34733400       0.88861600      -0.51773200
H        1.58694700      -0.40377100       1.77765200
H       -0.04326100      -1.06743800       1.89252900
H        0.23343000       0.64228200       2.19999700
H       -1.44964100       1.36079200       0.29179800
H       -1.11421700       0.82513800      -1.35637400
H       -2.17451900      -0.86067900       0.82690200
H       -1.83925600      -1.39353800      -0.69928400
H        0.88690800      -0.62908600      -1.94346800
H        2.06421200      -1.11766200      -0.60431000
