16
Properties=species:S:1:pos:R:3 pbc="F F F"
C       -1.28189500       1.56625500       1.21501700
N        0.10817300       1.13361100       1.08347300
C        0.39362500       0.42410000      -0.16604900
C        1.46711300      -0.62478400      -0.16502200
C        0.03432400      -1.03872500      -0.34212500
N       -0.38872800      -1.56885600      -1.63535800
H       -1.41201800       2.09336800       2.16310500
H       -2.00594600       0.73195700       1.18772200
H       -1.53942200       2.25295900       0.40397000
H        0.37374200       0.55396200       1.88229500
H        0.33547700       1.06632700      -1.05079800
H        1.95031400      -0.85818300       0.77913600
H        2.12320200      -0.68216300      -1.02820500
H       -0.43252200      -1.54620800       0.50775200
H        0.23024400      -1.25091700      -2.37592500
H       -1.33818400      -1.27546500      -1.85678600
