17
Properties=species:S:1:pos:R:3 pbc="F F F"
C        1.94294700      -0.02442100      -0.08031800
C        1.19688000      -1.13677100      -0.22985200
C       -0.21399400      -0.75850800       0.19013200
C       -0.25437400       0.70086700      -0.17812000
C        1.11342500       1.21678600       0.29656300
C       -1.76813000       0.67794500       0.15073300
C       -1.70903100      -0.83489400      -0.21237600
H        3.02374400       0.01511300      -0.19294600
H        1.58083200      -2.12786200      -0.45719400
H       -0.22578000      -0.83223900       1.29484600
H       -0.21356400       0.74723400      -1.27817900
H        1.16154900       1.39539100       1.37918200
H        1.45875400       2.12710900      -0.20574400
H       -2.41426700       1.31983200      -0.45565100
H       -1.99952800       0.83135300       1.20754500
H       -1.87887000      -1.00432000      -1.27803600
H       -2.33920200      -1.51763900       0.36560200
