13
Properties=species:S:1:pos:R:3 pbc="F F F"
N       -1.62539500      -0.58897300       1.19856500
C       -0.17140200      -0.44204800       1.21255100
C        0.39687500      -0.44560800      -0.22808800
C       -0.05594800       0.71902300      -1.01694700
C       -0.38666700       1.68876900      -1.65742500
O        1.82793200      -0.47502600      -0.18943300
H       -2.00009600      -0.56899900       2.14331800
H       -1.90152300      -1.46320300       0.75785400
H        0.33028200      -1.25049200       1.78180600
H        0.08540800       0.50030400       1.71473700
H        0.06760400      -1.37347500      -0.73988300
H       -0.70030500       2.53141700      -2.22380100
H        2.17579100       0.42665100      -0.16907500
