13
Properties=species:S:1:pos:R:3 pbc="F F F"
C       -1.14473000      -0.86417400       1.01371500
O       -0.14957000      -1.21546100       0.07512900
C        0.62867800      -0.17392200      -0.48683000
C        0.02057100       1.08279900      -1.03143700
C        0.88677800       1.12614300       0.20752300
H       -1.69754100      -1.77529400       1.26428400
H       -1.85469700      -0.12263700       0.60895400
H       -0.70811600      -0.45479600       1.94229400
H        1.45762100      -0.61130900      -1.05507500
H       -1.04110300       1.25677600      -0.89681400
H        0.42942200       1.49897900      -1.94690100
H        0.39031300       1.33554000       1.14822700
H        1.87288300       1.57136100       0.11617200
