17
Properties=species:S:1:pos:R:3 pbc="F F F"
C        1.28099900      -0.34056000       1.05963200
C        0.66308600      -0.32215100      -0.35355400
C       -0.87565700      -0.40916100      -0.30952000
C       -1.59690500       0.78449900       0.25368800
C       -1.10321300       2.01086200       0.43052000
N        1.17925200      -1.42951400      -1.18666200
H        2.36452800      -0.25066500       1.00743200
H        1.04780900      -1.27248100       1.57168100
H        0.90175800       0.47842500       1.66572300
H        0.95361600       0.62013200      -0.85108800
H       -1.24681400      -0.58359100      -1.32860600
H       -1.17301100      -1.29979400       0.25899500
H       -2.64332400       0.60578600       0.50754900
H       -0.07709200       2.26173500       0.19044800
H       -1.72449200       2.80698800       0.82208400
H        0.93957300      -2.32584200      -0.76871300
H        2.19282000      -1.37503000      -1.25346800
