14
Properties=species:S:1:pos:R:3 pbc="F F F"
N       -2.08470900      -0.12190300      -0.70053200
C       -0.82514800       0.40961200      -0.41257000
N       -0.34309500       1.44685100      -1.02359300
C       -0.08253600      -0.24974500       0.73233100
C        1.41217200      -0.15626500       0.59790300
C        2.25368800      -1.14113900       0.91142400
H       -2.52206200       0.16771300      -1.56706200
H       -2.28689100      -1.06730600      -0.40217700
H       -0.97069400       1.80470000      -1.74876600
H       -0.40115300      -1.29161500       0.84693600
H       -0.38715700       0.26016200       1.65971200
H        1.79009600       0.79192900       0.22047600
H        1.89925100      -2.09691300       1.28086100
H        3.32418400      -1.01807900       0.80436900
