13
Properties=species:S:1:pos:R:3 pbc="F F F"
C       -2.65830100       0.15489600       0.13552200
C       -1.15846700       0.17243100       0.15080100
C       -0.41154500      -0.67173300      -0.59074600
C        1.04945600      -0.75556000      -0.66466500
N        1.97956500      -0.06665900      -0.05826500
O        1.52960200       0.91252800       0.80375000
H       -3.06734000       0.91063900       0.80106600
H       -3.05087500      -0.81343700       0.44982700
H       -3.05098300       0.34429200      -0.86474600
H       -0.68046100       0.90468200       0.79372200
H       -0.93241000      -1.39245300      -1.22376900
H        1.43709600      -1.52629500      -1.34302200
H        2.32435100       1.33875600       1.17931500
