14
Properties=species:S:1:pos:R:3 pbc="F F F"
C       -1.78600800      -0.48030000       0.43501900
C       -0.25696900      -0.39865800       0.33947100
C        0.21551900       0.12783500      -1.03113300
N        1.67536600       0.10600000      -1.08976100
O        0.25618800       0.44531300       1.38243400
H       -2.18800600      -1.17203600      -0.30282000
H       -2.24317500       0.49373900       0.26287700
H       -2.09230500      -0.82240400       1.42064300
H        0.17769000      -1.39805800       0.51628900
H       -0.19411800       1.14916300      -1.19042300
H       -0.20080000      -0.49792800      -1.83675700
H        2.05715600       0.46168400      -0.21533600
H        2.02315400       0.66881100      -1.86139200
H       -0.15191300       1.31926500       1.31563900
