21
Properties=species:S:1:pos:R:3 pbc="F F F"
C        1.72893000       1.49946600       2.41293200
C        1.26668800       0.50854100       1.39020100
C        0.47619300       0.81934500       0.35577700
C       -0.02590800      -0.12919100      -0.71779400
C       -1.57843700      -0.10813500      -0.74446800
C       -2.18454600      -0.79988800      -1.95894200
C        0.52773000      -1.55109200      -0.58829600
H        2.81867900       1.55842700       2.43424500
H        1.40997800       1.20371000       3.41400000
H        1.33836900       2.49446300       2.21162500
H        1.61246200      -0.51499800       1.52802400
H        0.14011500       1.85229400       0.24821300
H        0.31667100       0.27534000      -1.68821900
H       -1.96330600      -0.57071200       0.16973300
H       -1.91200800       0.93507800      -0.72539700
H       -1.96154600      -1.86450600      -1.96552900
H       -1.80339200      -0.37379900      -2.88516200
H       -3.26708700      -0.68918900      -1.96040800
H        0.19371700      -2.02465500       0.33272400
H        1.61575100      -1.54615700      -0.59029600
H        0.19769200      -2.16957100      -1.42000500
