16
Properties=species:S:1:pos:R:3 pbc="F F F"
C       -2.46838700       0.67004100       0.54478300
C       -0.95555000       0.81478500       0.44596000
C       -0.22920500      -0.51197900       0.69169400
O        1.19501800      -0.34540300       0.63341700
C        1.80666300      -0.31044800      -0.56800500
C        1.24085100      -0.42665500      -1.78582600
H       -2.95999400       1.62553900       0.37782400
H       -2.76577600       0.30807300       1.52752900
H       -2.84455200      -0.03374100      -0.19545700
H       -0.60719300       1.55251000       1.17551800
H       -0.68448300       1.20320600      -0.53994900
H       -0.54544600      -1.28420400      -0.03102900
H       -0.45379300      -0.89055400       1.70152300
H        2.88882800      -0.17660700      -0.45890300
H        0.17898800      -0.56063800      -1.93094000
H        1.86704100      -0.39482100      -2.66508700
