14
Properties=species:S:1:pos:R:3 pbc="F F F"
N        0.31626300       1.71005600       0.72104900
N        0.10975700       0.60310900       1.53405900
C       -0.47769600      -0.44165000       1.03857400
C       -1.06610900      -0.58014600      -0.35701900
C       -0.06654100      -0.77780500      -1.47068600
C        1.25855600      -0.79836100      -1.33141900
H        0.35239200       2.57065900       1.26753100
H       -0.33598700       1.78074200      -0.06305700
H       -0.57238400      -1.30616900       1.70650800
H       -1.67916000       0.30401000      -0.59589200
H       -1.76553100      -1.42593800      -0.36523700
H       -0.50276600      -0.91689300      -2.46171200
H        1.72568800      -0.66242000      -0.36376000
H        1.90634700      -0.94837600      -2.18683800
