19
Properties=species:S:1:pos:R:3 pbc="F F F"
C       -0.59662500       1.16521500       2.39998800
C       -1.43170900       0.86495500       1.40474200
C       -1.14653600      -0.00363400       0.20878000
C        0.34606300      -0.29390300      -0.08834300
C        0.45511800      -1.45146300      -1.06072700
C        1.11066600      -1.45949000      -2.22138400
C        1.08141000       0.96660000      -0.55172100
H       -0.92070900       1.78619200       3.22612700
H        0.42532200       0.80655100       2.42579800
H       -2.45077300       1.25340100       1.44732500
H       -1.60922000       0.45400600      -0.67382800
H       -1.67594300      -0.95738200       0.34879400
H        0.80923700      -0.63426600       0.85534300
H       -0.06147400      -2.36036900      -0.74608900
H        1.63946500      -0.58959500      -2.59125300
H        1.13352600      -2.34910800      -2.83898000
H        0.67569100       1.33403100      -1.49215200
H        2.14127300       0.76833500      -0.69586400
H        0.98328100       1.75852500       0.18676800
