17
Properties=species:S:1:pos:R:3 pbc="F F F"
C       -1.79981800      -0.43662700      -0.28228200
C       -0.33228600      -0.11819900      -0.15775500
C        0.32770200      -0.00306300       1.00909700
C       -0.23201300      -0.15246000       2.38999800
C        0.37680000       0.04542700      -1.49198100
N        1.73349900       0.57747900      -1.37643200
H       -2.28628200      -0.55339300       0.68153900
H       -1.94575200      -1.35992500      -0.84621800
H       -2.32088600       0.35077300      -0.83020200
H        1.39416900       0.21348800       0.96627900
H       -1.30276600      -0.33826300       2.39599700
H       -0.04361500       0.74685800       2.97955400
H        0.25446400      -0.97744600       2.91449300
H       -0.25855700       0.67457100      -2.15574200
H        0.43068100      -0.93564100      -1.99321800
H        1.71976300       1.51881600      -0.99177300
H        2.18197200       0.60733900      -2.28815200
