14
Properties=species:S:1:pos:R:3 pbc="F F F"
C       -1.36877600       0.52987900       1.15960300
C        0.14129500       0.45780000       1.14115000
C        0.92689700       1.22716000       0.12526200
C        0.87117900      -0.27719900       0.03991200
C        0.14175000      -0.91510800      -1.03756700
C       -0.44346100      -1.47569300      -1.93608100
H       -1.70977500       1.40106700       1.71865000
H       -1.79535300      -0.35383900       1.63241000
H       -1.76658100       0.59720400       0.15032100
H        0.60111000       0.37503700       2.12806100
H        1.86697800       1.67627500       0.43155900
H        0.37744800       1.79030700      -0.62099300
H        1.77809100      -0.81174200       0.33331200
H       -0.96522100      -1.95534300      -2.72700200
