14
Properties=species:S:1:pos:R:3 pbc="F F F"
C       -2.63943900       0.38124500      -0.38720100
C       -1.22814000       0.43834700       0.11471700
N       -0.23216700       0.17623500      -0.66535600
N        1.07246800       0.34066500      -0.12304600
C        1.40859100      -0.38430000       1.10242300
C        1.95981200      -0.81495100      -0.22179700
H       -3.23505900      -0.31991500       0.20023200
H       -2.67602900       0.07450500      -1.42916200
H       -3.12413400       1.35559200      -0.29943300
H       -1.08480400       0.70951600       1.17915500
H        0.62196400      -0.98988100       1.55576600
H        2.05144400       0.14491600       1.80820700
H        1.56038400      -1.72325300      -0.67361900
H        2.99918600      -0.59182200      -0.47118700
