11
Properties=species:S:1:pos:R:3 pbc="F F F"
N       -2.16415700       0.36993700      -0.14597600
C       -0.77148200       0.31097200      -0.02966100
C        0.10863500       1.36985800       0.01529500
C        1.47587600       0.93986000       0.07300400
C        1.63080700      -0.41814200       0.06519600
S        0.06706200      -1.22929500      -0.01758600
H       -2.57879300       1.24812900       0.14706100
H       -2.67167700      -0.44467300       0.17902500
H       -0.20090000       2.40820200       0.01082500
H        2.31005900       1.63178900       0.12046700
H        2.55440800      -0.97958000       0.10282200
