12
Properties=species:S:1:pos:R:3 pbc="F F F"
C       -0.39011400      -0.32647500      -1.90252600
C       -0.66800800      -0.29859600      -0.40271000
C        0.04418900      -1.34116200       0.48145200
O        0.70455500      -0.28364400       1.22620500
C        0.12732800       0.69166500       0.45743500
O        0.27645000       1.88746000       0.54250100
H       -0.85988800      -1.19127300      -2.36866300
H        0.67825000      -0.37370900      -2.10278400
H       -0.78313300       0.56950800      -2.37740300
H       -1.75034700      -0.25019100      -0.21958900
H        0.77937800      -1.98598400      -0.02187800
H       -0.59266800      -1.95146600       1.13877000
