15
Properties=species:S:1:pos:R:3 pbc="F F F"
N       -1.45637900       0.04297900       1.91168500
C       -0.28167700      -0.43394400       1.17611400
C       -0.50163200      -0.34718200      -0.32876400
C       -0.31072000       0.97226100      -1.05386600
C        0.63900500      -0.16209700      -1.28947300
O        1.96435000      -0.06775600      -0.82184700
H       -1.33202100      -0.08706300       2.91220800
H       -2.29115400      -0.45849700       1.61976400
H       -0.02554600      -1.48146300       1.44660600
H        0.58675700       0.17714500       1.46688300
H       -1.33656200      -0.95261300      -0.68897200
H        0.03642800       1.81251300      -0.46117900
H       -1.02565500       1.23352900      -1.82833500
H        0.60141000      -0.68823500      -2.24836700
H        1.99634100       0.51165400      -0.04968700
