18
Properties=species:S:1:pos:R:3 pbc="F F F"
C       -0.05559500       1.49449600       1.83543200
C       -0.35373500       0.20552100       1.08042100
C        0.33994000       0.11617500      -0.29888100
C       -0.24720400      -1.05097600      -1.12477600
O       -1.63632200      -0.88144700      -1.35876100
C        1.86148400      -0.02917000      -0.17766200
H       -0.58936400       1.51588400       2.78332200
H       -0.36139600       2.36612100       1.25951300
H        1.00618700       1.59475800       2.05092000
H       -1.43391200       0.11714200       0.92817200
H       -0.05652100      -0.65416500       1.69013100
H        0.12989400       1.05110800      -0.84648500
H        0.29322600      -1.13373800      -2.09250800
H       -0.11761700      -2.00744300      -0.59701100
H       -1.79659300      -0.01171100      -1.74752700
H        2.12561300      -0.93759300       0.36088700
H        2.29656700       0.81301700       0.35516800
H        2.32515200      -0.07808100      -1.16169500
