15
Properties=species:S:1:pos:R:3 pbc="F F F"
C       -2.16133100      -0.01299000       0.65864400
C       -0.63169300      -0.05681800       0.61020300
C       -0.13950700      -0.39037900      -0.83586000
C        1.31526600      -0.49522900      -0.92631600
C        2.51955700      -0.57483600      -0.99012100
N       -0.07562900       1.21040500       1.10816000
H       -2.58983700      -0.96367300       0.34785300
H       -2.55159700       0.76261100       0.00155600
H       -2.50431500       0.20192400       1.66757800
H       -0.27991500      -0.86125500       1.28004000
H       -0.48727100       0.38401300      -1.53183500
H       -0.58865500      -1.33491300      -1.16839000
H        3.57625500      -0.65655600      -1.06010000
H       -0.40006600       1.99060000       0.54134300
H        0.94105300       1.18593100       1.06553600
