19
Properties=species:S:1:pos:R:3 pbc="F F F"
C       -0.56023900      -0.02686300       2.04225500
C       -0.89900200      -0.00026100       0.55693600
C       -0.27368100      -1.00300400      -0.44214400
C        1.23763300      -0.78228800      -0.26514300
C        1.25277900       0.76555500      -0.23908700
C       -0.25367800       1.02157500      -0.40929000
C       -0.60896500       0.03062500      -1.53028700
H       -1.00516800      -0.89910300       2.51930300
H       -0.95570400       0.85779800       2.53960700
H        0.51104000      -0.05920100       2.22497600
H       -1.99183400       0.01277600       0.43799100
H       -0.62435200      -2.04261800      -0.51062200
H        1.81531000      -1.19141900      -1.09980000
H        1.63060500      -1.22828300       0.65342700
H        1.83961500       1.19135000      -1.05888400
H        1.65268700       1.17244600       0.69451200
H       -0.58389900       2.06953400      -0.44377400
H        0.00907400       0.03915600      -2.43287000
H       -1.66645400       0.04553800      -1.80331300
