17
Properties=species:S:1:pos:R:3 pbc="F F F"
C       -0.06160900       0.19388900       2.24633500
C       -0.14615000       1.22644400       1.12971500
C        0.05985000       0.69501800      -0.28782900
N        1.18589200      -0.19696700      -0.59616900
C       -0.18397500      -0.72488300      -0.68764400
C       -0.70179300      -1.08173500      -2.06549100
H       -0.15441100       0.67885900       3.21561100
H        0.89000100      -0.33457500       2.23103700
H       -0.85649000      -0.54507400       2.16888100
H        0.59360800       2.01461100       1.31744900
H       -1.12352800       1.72204100       1.17641900
H       -0.10121100       1.46030300      -1.05804200
H        1.63441400      -0.51729400       0.26538900
H       -0.47427800      -1.42533400       0.10539500
H       -0.37596700      -0.35283900      -2.80338900
H       -1.79122200      -1.11362600      -2.07705300
H       -0.34010300      -2.06070500      -2.37902900
