19
Properties=species:S:1:pos:R:3 pbc="F F F"
C        1.90880600       2.28812800      -0.11474900
C        1.27083400       0.99692700       0.29369500
C        0.50801300       0.25350800      -0.51654100
C       -0.14197200      -1.07210500      -0.17232200
C       -1.65390700      -1.04795100      -0.33285100
C       -2.39944600       0.02563900      -0.59246700
C        0.23154700      -1.61464100       1.21589000
H        2.99512700       2.23033000      -0.02635400
H        1.58325400       3.10500600       0.53136500
H        1.66474100       2.54822800      -1.14214800
H        1.45863600       0.67569700       1.31740200
H        0.33324400       0.60176800      -1.53542800
H        0.22923800      -1.80935400      -0.91306300
H       -2.14277800      -2.01613800      -0.21086800
H       -1.96053400       1.00939700      -0.70890000
H       -3.47571500      -0.05311100      -0.69101700
H       -0.11770200      -0.95455900       2.00666300
H        1.30986700      -1.72222900       1.31469200
H       -0.22062500      -2.59206400       1.37372600
