13
Properties=species:S:1:pos:R:3 pbc="F F F"
C       -1.49988100       0.64073500      -0.04820500
C        0.03061000       0.55748000      -0.05468700
C        0.54759000       0.29683100       1.30328800
N        0.95791800       0.10826000       2.36139400
C        0.60643700      -0.45725200      -1.02967600
C       -0.08791200      -1.16765200      -1.91667900
H       -1.83742600       1.37985600       0.67461700
H       -1.94473900      -0.31634800       0.21331900
H       -1.86942200       0.93212100      -1.02880100
H        0.42871400       1.54934700      -0.34432200
H        1.68868300      -0.57579600      -0.98091700
H       -1.16531500      -1.09253500      -2.00103800
H        0.41301500      -1.85531700      -2.58685800
