16
Properties=species:S:1:pos:R:3 pbc="F F F"
C       -0.40507200      -0.09777300       1.98007400
C       -0.71775700       0.01914300       0.50290100
C        0.19376800       0.77903500      -0.42379200
C        0.05979000      -0.73097800      -0.54942100
N        1.14281400      -1.63238400      -0.17362700
N       -0.39171300       1.67519400      -1.41762300
H       -0.83647700       0.73726200       2.53131500
H        0.66739200      -0.09387000       2.16641000
H       -0.81564700      -1.01623600       2.39935900
H       -1.78456700       0.12074100       0.29121500
H        1.12324700       1.15895200       0.01218900
H       -0.53008700      -1.09781500      -1.39738400
H        1.46589200      -1.44770400       0.77141700
H        1.93148900      -1.54392900      -0.81124200
H       -1.36960700       1.45071800      -1.57929200
H        0.10628900       1.61564900      -2.30381000
