17
Properties=species:S:1:pos:R:3 pbc="F F F"
C       -2.47782500       0.12657100       0.55511400
C       -1.15819100       0.16169000       0.33332300
C       -0.32673300       1.42069600       0.23825400
C        1.00436000       1.00227300      -0.39790000
C        1.06368000      -0.50581000      -0.29700100
C        2.14563700      -1.24966200      -0.55868100
C       -0.27774400      -1.04768200       0.13427300
H       -3.05080000       1.03646400       0.68236500
H       -3.01341600      -0.81283400       0.61310100
H       -0.16121500       1.83155400       1.24214000
H       -0.83423500       2.20535300      -0.33056900
H        1.86404200       1.47746200       0.08459800
H        1.04211700       1.30629000      -1.45116800
H        3.08063500      -0.79530400      -0.86178000
H        2.11931000      -2.32913700      -0.47628100
H       -0.18962200      -1.62993200       1.06160500
H       -0.69591400      -1.73836300      -0.60830500
