15
Properties=species:S:1:pos:R:3 pbc="F F F"
C       -1.41263300      -0.03238400       0.33809300
C       -0.64417700       1.24128800      -0.04989300
C        0.75798100       0.75455500      -0.38111900
C        0.69502500      -0.72978500      -0.49926000
N       -0.68194700      -1.16012500      -0.27494800
C        1.43973700      -0.10453100       0.65687900
H       -2.46006800      -0.00860600      -0.00639500
H       -1.45361600      -0.13485200       1.43929800
H       -0.66520800       1.98932700       0.75075600
H       -1.09021900       1.71447400      -0.93211400
H        1.38015100       1.35751500      -1.04268500
H        1.25229700      -1.28396100      -1.26071200
H       -0.73789000      -2.00021000       0.30607900
H        2.52480100      -0.13312700       0.63121100
H        1.00778400      -0.15454600       1.65100200
