19
Properties=species:S:1:pos:R:3 pbc="F F F"
C       -0.23804900       0.99520700       1.70467900
C       -0.81442300       0.84643000       0.32316400
C       -1.87172000       1.57370600      -0.06857400
C       -0.17029700      -0.14873600      -0.62062900
C        1.35634100      -0.04690200      -0.86254500
C        1.50435700      -1.54031100      -0.55218500
C        0.03274000      -1.60360800      -0.12907300
H       -0.77735500       1.74532900       2.27747500
H        0.81170200       1.28816800       1.66276800
H       -0.28255500       0.05215200       2.25104900
H       -2.34078800       2.28926800       0.59558000
H       -2.28852600       1.46727700      -1.06287300
H       -0.71657300      -0.13338500      -1.57376700
H        1.87520300       0.59986700      -0.15130300
H        1.64501800       0.25918400      -1.87152300
H        2.22875700      -1.78852700       0.22791500
H        1.73447300      -2.14899000      -1.43000300
H       -0.10704700      -1.73155000       0.94679700
H       -0.57600400      -2.35351100      -0.64114200
