17
Properties=species:S:1:pos:R:3 pbc="F F F"
N       -1.45743200       0.71968000       1.14692800
C        0.00438600       0.78734700       1.00595900
C        0.55463100      -0.38873500       0.16668600
C        0.10125900      -0.30900500      -1.31134100
O       -1.29526300      -0.48125100      -1.44604200
C        2.08465800      -0.43700900       0.25373900
H       -1.80368300       1.53201800       1.65253800
H       -1.72644300      -0.11712700       1.66069300
H        0.50350600       0.79291500       1.99686100
H        0.26184800       1.74156300       0.52514800
H        0.15688600      -1.32265400       0.59363500
H        0.59743500      -1.09711500      -1.90134700
H        0.41538700       0.66679400      -1.74560900
H       -1.73615800       0.04732300      -0.75764500
H        2.53056100       0.46593800      -0.16116100
H        2.47878500      -1.28683900      -0.30021900
H        2.41639500      -0.52616400       1.28669700
