17
Properties=species:S:1:pos:R:3 pbc="F F F"
C       -0.53983900      -1.39533200       1.37402600
C        0.47261000      -1.58065900       0.25211700
C        1.20706000      -0.31827000      -0.19816200
C        1.19740700       0.96358900       0.57360400
C        0.50102500       0.89533600      -0.76170800
C       -0.94264400       0.97737000      -0.85186500
C       -2.13894000       1.09434300      -0.99524500
H       -1.03153400      -2.34085900       1.59374700
H       -1.30500500      -0.67281900       1.10260100
H       -0.05821100      -1.05260200       2.28767100
H       -0.02753200      -2.02738200      -0.61573900
H        1.22345400      -2.31322700       0.57203500
H        2.15020000      -0.53980900      -0.70380200
H        2.11813100       1.53748200       0.62837000
H        0.57499400       1.02514400       1.45903600
H        1.00934900       1.39291900      -1.59227300
H       -3.19392500       1.17289100      -1.08825000
