18
Properties=species:S:1:pos:R:3 pbc="F F F"
C       -0.07775800      -2.15557100      -1.13712100
C       -0.50442400      -0.72254300      -0.84427500
C       -0.07912700      -0.22511900       0.56729500
C       -0.68220100       1.17173300       0.88501300
N       -0.19545500       2.26155800       0.03092200
N        1.38615100      -0.19080900       0.74443300
H       -0.42872900      -2.47103900      -2.11762200
H       -0.48281700      -2.84444600      -0.39814700
H        1.00602600      -2.25579600      -1.12611700
H       -1.59367200      -0.64609900      -0.93102100
H       -0.08679100      -0.05727100      -1.60803100
H       -0.48061500      -0.93596700       1.31279500
H       -1.77728700       1.11862700       0.79707500
H       -0.45698800       1.42988100       1.92766200
H       -0.36499900       2.05528500      -0.95026300
H        0.80320000       2.39632100       0.16501000
H        1.81033400       0.42505300       0.05449800
H        1.77852900      -1.12079400       0.62120500
