18
Properties=species:S:1:pos:R:3 pbc="F F F"
C       -2.56151200       0.89640000      -0.74766000
C       -1.03928200       0.84529100      -0.74526500
C       -0.48712500      -0.38184500      -0.00968800
C        1.05769000      -0.40756200       0.01221100
O        1.56822400       0.76889000       0.65011200
C        1.60053600      -1.66172700       0.71430000
H       -2.91830500       1.78080600      -1.27121100
H       -2.95506500       0.92637600       0.26646800
H       -2.98295400       0.02239100      -1.24056900
H       -0.63977000       1.75009200      -0.27820000
H       -0.67144800       0.84425000      -1.77678200
H       -0.85687700      -1.29724900      -0.48410900
H       -0.86736100      -0.39517500       1.01840800
H        1.43683500      -0.38064800      -1.02646100
H        1.26944600       0.78995700       1.56907600
H        1.25618400      -1.71476300       1.74620300
H        2.68767600      -1.65335500       0.72602500
H        1.27401600      -2.56714600       0.20687800
