15
Properties=species:S:1:pos:R:3 pbc="F F F"
C       -3.16508700       1.04499300       0.54822500
C       -1.71131200       0.98382800       0.55816000
C       -0.49832200       0.89788800       0.54108500
C        0.92927100       0.87070900       0.56002000
C        1.69180600      -0.09546800      -0.01004700
C        1.15603200      -1.24298100      -0.72275900
C        1.91849800      -2.19000200      -1.29432000
H       -3.59661600       0.04227000       0.52579000
H       -3.52319200       1.58603800      -0.33049300
H       -3.54123500       1.55774500       1.43552200
H        1.41372700       1.70209600       1.07580300
H        2.77549600      -0.01504000       0.06239700
H        0.07070500      -1.31561700      -0.78267700
H        3.00071100      -2.14345000      -1.25113100
H        1.47508200      -3.02784900      -1.81739100
