14
Properties=species:S:1:pos:R:3 pbc="F F F"
C       -1.03687700       0.85040100      -1.46047800
O       -1.38311100       0.40329000      -0.15725300
C       -0.83655300      -0.86859500       0.19348600
C        0.59439100      -0.78732500       0.72902000
C        1.25180200       0.48745300       1.08124200
O        1.59609300      -0.20440000      -0.11370000
H       -1.53896400       1.80853300      -1.62780800
H       -1.37531900       0.13108800      -2.22709500
H        0.04928900       0.98714600      -1.56928500
H       -0.88643700      -1.55811100      -0.67296100
H       -1.48543800      -1.29158900       0.98117700
H        0.93991600      -1.70248200       1.24252900
H        2.03710100       0.50897800       1.84860000
H        0.71941700       1.43372000       0.93284300
