17
Properties=species:S:1:pos:R:3 pbc="F F F"
C       -0.61939800      -2.69112000      -1.19194100
C        0.27693900      -2.42951400      -0.02327400
C        0.44321700      -1.26610500       0.62102600
C       -0.24660800       0.03734600       0.31622900
C        0.70795300       1.23872500       0.44211500
C        0.04671900       2.51249800       0.15768800
C       -0.49993500       3.56294300      -0.08191600
H       -0.07494000      -3.20314100      -1.98593300
H       -1.04483900      -1.77863800      -1.60131100
H       -1.44421000      -3.34540800      -0.90284200
H        0.83815300      -3.29380300       0.33252800
H        1.13057900      -1.24544400       1.46759800
H       -1.08197900       0.17941400       1.01523400
H       -0.68606800       0.02143900      -0.68474400
H        1.55579400       1.11650200      -0.24391100
H        1.13182600       1.27220700       1.45468200
H       -0.97763800       4.48824100      -0.29086800
