11
Properties=species:S:1:pos:R:3 pbc="F F F"
C       -0.69715100       0.38698500      -0.15402000
C       -1.18497300      -0.51406500      -1.20574500
C       -1.59401500      -1.23677500      -2.08244200
N        0.76197200       0.43147200      -0.11529200
C        1.44493000       0.37190500       1.07880200
O        0.89260100       0.31851700       2.16995600
H       -1.04312600       0.05167700       0.83396800
H       -1.12221700       1.39727500      -0.32079500
H       -1.95675400      -1.88737100      -2.84042200
H        1.26715900       0.43809300      -0.99519600
H        2.56758700       0.38359400       0.95028100
