17
Properties=species:S:1:pos:R:3 pbc="F F F"
C        1.85235200      -0.22579500       0.77786400
C        0.96375100      -1.19526400       0.00800700
C       -0.41079300      -0.63869000      -0.40742100
C       -1.27399900       0.04170600       0.67586600
C       -1.09716900       1.34474100      -0.11120100
N       -0.38523500       0.62793300      -1.19262600
H        2.81260000      -0.68515800       1.00320300
H        1.39570800       0.06955400       1.72027400
H        2.04384000       0.67805900       0.20237400
H        0.80732100      -2.09661500       0.61133400
H        1.49091900      -1.52179900      -0.89572100
H       -0.94864100      -1.44094300      -0.95336300
H       -0.86068400       0.04263700       1.68742700
H       -2.30259700      -0.32432600       0.72724000
H       -0.48063100       2.10328700       0.39746100
H       -2.02446000       1.83670700      -0.44708300
H        0.55842000       0.98287200      -1.36345200
