14
Properties=species:S:1:pos:R:3 pbc="F F F"
N       -0.66380400       1.13628500      -1.55724300
C       -1.06663700       0.84070700      -0.18141900
C       -0.54401000      -0.53071100       0.27390200
C        0.95701600      -0.59468300       0.32615200
C        1.65640400      -1.06494500       1.35948900
H       -1.00520000       2.04985600      -1.84406800
H       -1.02942900       0.43664500      -2.19828200
H       -2.17154500       0.85772800      -0.06179900
H       -0.67340800       1.62831000       0.47575200
H       -0.90949900      -1.29362100      -0.42818800
H       -0.96764500      -0.77959700       1.25207700
H        1.47951000      -0.22728500      -0.55659800
H        1.16820700      -1.43399900       2.25445800
H        2.73900100      -1.09423800       1.33860600
