14
Properties=species:S:1:pos:R:3 pbc="F F F"
O       -1.89354200       0.38500000       0.48185000
C       -0.77940900       0.37100300       0.01665000
C        0.16311600       1.46509100      -0.48571600
C        1.23370000       0.37474300      -0.70208700
C        0.23945700      -0.74245100      -0.27376600
C        0.64805000      -1.64472900       0.88644000
H        0.41760000       2.23567900       0.24609600
H       -0.17199500       1.96490000      -1.39815700
H        2.09491700       0.47147200      -0.03880000
H        1.60180200       0.29054600      -1.72641100
H       -0.07444500      -1.36149300      -1.12637900
H        0.95766100      -1.05787600       1.74876100
H        1.47835400      -2.28957800       0.60229800
H       -0.18504200      -2.27558800       1.18866200
