12
Properties=species:S:1:pos:R:3 pbc="F F F"
C       -1.33389800       0.84994900      -0.40058000
C        0.15819600       0.70137600      -0.35416900
C        0.78597800      -0.39075800       0.17330400
C        0.07709800      -1.49376800       0.73976400
N       -0.47265500      -2.39833400       1.20927500
N        0.88213100       1.73556200      -0.93316000
H       -1.82505900      -0.02212600       0.01926800
H       -1.67578900       0.98124500      -1.42752100
H       -1.65346800       1.73003600       0.15964900
H        1.87145000      -0.45206900       0.17682900
H        0.41619500       2.62333600      -1.06534300
H        1.87608700       1.77819100      -0.74559400
