18
Properties=species:S:1:pos:R:3 pbc="F F F"
O       -2.52905800       0.55637300      -0.89613700
C       -1.11669800       0.67303800      -0.88534400
C       -0.53876900      -0.32498400       0.11509000
C        1.00419800      -0.38647000       0.11433700
C        1.64055300       0.92572500       0.59373100
C        1.49486600      -1.56423100       0.96812300
H       -2.90636600       1.19111000      -1.51801900
H       -0.82792500       1.71406500      -0.62584700
H       -0.71177300       0.48202000      -1.90378400
H       -0.93428600      -1.31810200      -0.11975200
H       -0.90101900      -0.08252700       1.11893400
H        1.33581900      -0.56189100      -0.92297500
H        1.32805300       1.16264400       1.60866500
H        1.36150300       1.75986600      -0.04669200
H        2.72605300       0.85018100       0.58785600
H        1.19750100      -1.44276300       2.00772000
H        2.57980600      -1.64006000       0.93795600
H        1.08019700      -2.50399200       0.60941600
