13
Properties=species:S:1:pos:R:3 pbc="F F F"
C       -1.39918600      -2.08075300      -0.31279300
C       -0.02877200      -1.76374800       0.19359000
C        0.47188000      -0.55309000       0.47301500
C       -0.26272800       0.76089300       0.35319200
C        0.58743500       1.82980400      -0.17527100
N        1.24606000       2.67846600      -0.58724400
H       -1.96481900      -2.63560500       0.43801100
H       -1.34075400      -2.71592800      -1.19706500
H       -1.96706900      -1.18982800      -0.56932400
H        0.61827600      -2.62657300       0.35049700
H        1.49402400      -0.48634700       0.84152800
H       -0.62611800       1.07864600       1.34289100
H       -1.14772700       0.66774200      -0.28622600
