21
Properties=species:S:1:pos:R:3 pbc="F F F"
C       -1.81752400      -0.50053000       1.80883800
C       -0.72109600      -1.06471300       0.91534500
C        0.01374200      -0.06407500       0.00419500
C        1.11822100      -0.77814600      -0.79687700
C        1.91060600       0.07244700      -1.78056900
C       -0.75233900       1.06610200      -0.62617200
C        0.23112500       1.34901800       0.47023800
H       -2.27367300      -1.30030700       2.38891400
H       -2.60437000      -0.02431900       1.22794400
H       -1.42633400       0.23296400       2.51045800
H       -1.15127100      -1.85308400       0.28448300
H        0.02254700      -1.56851400       1.54596700
H        0.66301300      -1.61481400      -1.34209200
H        1.81677500      -1.23814900      -0.08617100
H        1.27157100       0.49314100      -2.55390100
H        2.66685700      -0.53550400      -2.27321300
H        2.42092700       0.89382500      -1.28225400
H       -1.80732300       1.16942000      -0.39446300
H       -0.48783500       1.37433700      -1.63226900
H       -0.16356800       1.64330000       1.43707200
H        1.15627200       1.84709800       0.19953600
