21
Properties=species:S:1:pos:R:3 pbc="F F F"
C       -1.69349600      -1.82052100       2.21764700
C       -1.84636700      -0.36672200       1.78670600
C       -1.28065000      -0.06685600       0.39172900
C        0.25075200      -0.18361900       0.31364200
C        0.78804500       0.15751100      -1.05060800
C        1.73751400       1.07442900      -1.27469900
C        2.28764300       1.40650100      -2.62612800
H       -2.13980100      -1.97960200       3.19717100
H       -0.64622700      -2.10890700       2.27840900
H       -2.18306800      -2.49052900       1.51371300
H       -1.36230400       0.28368700       2.52332400
H       -2.90966900      -0.10308300       1.79729500
H       -1.57729800       0.94683600       0.10241400
H       -1.73511900      -0.74118100      -0.34213200
H        0.54277800      -1.21159100       0.56847800
H        0.71064000       0.46379000       1.06772600
H        0.36736900      -0.39419400      -1.89194500
H        2.15551500       1.62866400      -0.43390900
H        1.81232400       0.81746800      -3.40711800
H        3.36261500       1.22134900      -2.66543800
H        2.14160200       2.46296400      -2.85772300
