16
Properties=species:S:1:pos:R:3 pbc="F F F"
N       -0.89161300       1.86448900       1.12019600
C       -1.31787200       1.03069500      -0.00432400
C       -0.81246400      -0.40399800       0.16599600
N        0.66245400      -0.44537800       0.15698500
C        1.27422500      -1.72149800      -0.21101500
C        1.30395700      -0.56713200      -1.15167500
H       -1.06959400       2.84746800       0.93219300
H        0.10409500       1.73458600       1.28500400
H       -0.95930000       1.43172800      -0.97656100
H       -2.41815400       1.02905700      -0.06067100
H       -1.24140500      -1.04595100      -0.63011500
H       -1.16299900      -0.80958000       1.12615600
H        0.60770300      -2.55702600      -0.44038500
H        2.17340700      -1.99290400       0.34533600
H        0.65788400      -0.60325100      -2.03268400
H        2.22539700       0.00369500      -1.28243000
