17
Properties=species:S:1:pos:R:3 pbc="F F F"
C       -2.41148800      -0.98609400      -0.04875400
C       -1.09349500      -0.76086300      -0.13294400
C       -0.40519200       0.50265200       0.19718500
C       -1.06565800       1.60465000       0.61123400
C        1.08701400       0.55280200       0.06298600
C        1.95576000      -0.63414500       0.38250800
C        1.81456100      -0.18209100      -1.03086300
H       -2.82773900      -1.95032700      -0.31353400
H       -3.10607000      -0.22380700       0.28453500
H       -0.45681400      -1.57664400      -0.47488900
H       -2.14211800       1.61484300       0.72404000
H       -0.53137800       2.51750100       0.84429400
H        1.51347600       1.52080600       0.32932900
H        1.47146700      -1.56113000       0.67251400
H        2.89713600      -0.44256100       0.88758600
H        1.23408500      -0.79957000      -1.70892800
H        2.65895400       0.31943000      -1.49305900
