17
Properties=species:S:1:pos:R:3 pbc="F F F"
C       -2.37140200      -0.22518700       0.12667900
C       -0.87685200      -0.27323300       0.10569400
C       -0.10813700      -1.31389800      -0.26700200
C        1.36589400      -1.01799900      -0.13240100
C        1.40253200       0.43482400       0.33756000
C       -0.02173000       0.89550800       0.50368000
C        0.83874100       1.46206400      -0.59697800
H       -2.80386900      -1.18552200      -0.14542900
H       -2.75013500       0.52654600      -0.56863400
H       -2.73985900       0.04775800       1.11711900
H       -0.48442200      -2.26517100      -0.63122600
H        1.90308700      -1.16626300      -1.07898700
H        1.84698100      -1.68742000       0.59474300
H        2.18091900       0.74537500       1.03435200
H       -0.33610900       1.55583100       1.31253100
H        1.18555500       2.48453000      -0.47702500
H        0.62357100       1.17185500      -1.62084000
