12
Properties=species:S:1:pos:R:3 pbc="F F F"
C       -1.38629600      -0.03503900      -0.29175900
N       -0.78227200      -1.15227500       0.02633500
C        0.54326600      -0.79614800       0.48455200
C        0.64202700       0.71919300       0.42789900
N       -0.63715300       1.12110500      -0.11900800
C        1.46503600      -0.12812400      -0.51042100
H       -2.40177300       0.01643300      -0.68973300
H        0.98484600      -1.42247000       1.26527800
H        1.10720600       1.38189700       1.16226600
H       -1.05960500       2.01351400       0.11429600
H        2.52887500      -0.19286500      -0.30445200
H        1.19222200      -0.13760700      -1.56057200
