18
Properties=species:S:1:pos:R:3 pbc="F F F"
C       -1.61648200      -0.72070300      -1.96886500
C       -1.77323600       0.24057300      -0.79750100
C       -1.03803200      -0.21176900       0.47790100
C        0.46211900      -0.19927200       0.35004300
C        1.27628500       0.47407400       1.17227500
C        2.76877100       0.47942100       1.06197900
H       -2.18034000      -0.37054200      -2.83131600
H       -1.97986300      -1.71405500      -1.71180000
H       -0.57470300      -0.81427100      -2.26792600
H       -2.83825800       0.35008400      -0.56437700
H       -1.41902500       1.23392500      -1.09013000
H       -1.37081200      -1.22764000       0.73239200
H       -1.33907700       0.43124800       1.31188800
H        0.89085400      -0.78734100      -0.46138300
H        0.85028300       1.06392600       1.98450400
H        3.10998100      -0.13131500       0.22918900
H        3.22860700       0.09833300       1.97562400
H        3.14580000       1.49370400       0.91834900
