19
Properties=species:S:1:pos:R:3 pbc="F F F"
C       -2.66914200       0.31444000       1.74346200
C       -1.65666300      -0.32035500       0.79283100
C       -1.04168300       0.68148200      -0.15001900
C        0.26151400       0.87231000      -0.39350200
C        1.42012000       0.16192800       0.25481100
C        2.24841600      -0.68287300      -0.68028900
C        1.95050400      -0.96178900      -1.94931400
H       -3.12636000      -0.44063400       2.37990000
H       -3.46234000       0.81485500       1.19146400
H       -2.19373300       1.05232700       2.38600100
H       -2.16701000      -1.09339900       0.20171600
H       -0.88437900      -0.83744300       1.36939400
H       -1.75666700       1.29919900      -0.69519600
H        0.53779200       1.63089100      -1.12659200
H        1.07828200      -0.46858900       1.08547900
H        2.08420700       0.91093800       0.71307000
H        3.16012100      -1.09526200      -0.24444800
H        1.05234000      -0.57738600      -2.41737200
H        2.59935400      -1.58635300      -2.55129700
