18
Properties=species:S:1:pos:R:3 pbc="F F F"
O       -2.59686600       0.16732000       0.43146600
C       -1.19313400       0.16523800       0.63529400
C       -0.50001500      -0.10552400      -0.69811700
C        1.04339300      -0.15644700      -0.63999300
C        1.65738300       1.18595400      -0.21933300
C        1.55707800      -1.29976500       0.24624700
H       -3.04934800       0.33256400       1.26816800
H       -0.92409400      -0.60688100       1.38755900
H       -0.87332100       1.14149200       1.05869600
H       -0.80347100       0.66671700      -1.41242900
H       -0.87148000      -1.05464400      -1.09788200
H        1.38587500      -0.36271200      -1.66748600
H        1.40970400       1.43456100       0.81068100
H        1.29859500       1.99314800      -0.85443600
H        2.74196400       1.15128700      -0.29846500
H        1.31467300      -1.13270700       1.29395400
H        2.63882900      -1.38825600       0.16779500
H        1.11877500      -2.24986700      -0.05247600
