19
Properties=species:S:1:pos:R:3 pbc="F F F"
C       -3.22594800       0.97030500       0.00479200
C       -1.76063500       1.01209600      -0.29612200
C       -0.80477100       0.64034000       0.56407000
C        0.67073300       0.68406300       0.26082500
C        1.34866800      -0.67084100       0.45554000
C        1.38400900      -1.66780500      -0.66106200
C        2.64111400      -0.97266400      -0.23940200
H       -3.66922100       1.96479300      -0.07184300
H       -3.41722700       0.58815700       1.00491900
H       -3.75192000       0.33467000      -0.70975700
H       -1.48083600       1.37047900      -1.28717800
H       -1.08673800       0.27664600       1.55275600
H        1.15196300       1.41846800       0.92481700
H        0.83320200       1.03600700      -0.76259500
H        1.23820600      -1.08512400       1.45940000
H        0.94742200      -1.38260800      -1.61256400
H        1.27762400      -2.71959700      -0.41507300
H        3.05048900      -0.22317400      -0.90929800
H        3.38801700      -1.55167700       0.29456700
