13
Properties=species:S:1:pos:R:3 pbc="F F F"
O       -2.66526700       0.03307900      -0.01415300
N       -1.30252100      -0.00499900       0.22047000
C       -0.60325000       0.40229200      -0.79034400
C        0.90175700       0.44047600      -0.73407000
C        1.47723500       0.03377400       0.59419700
C        2.44287500      -0.87195700       0.74800200
H       -3.10160500      -0.29652100       0.79450800
H       -1.08609900       0.73385700      -1.72402600
H        1.23051100       1.46613500      -0.96955600
H        1.31676700      -0.18580400      -1.53512900
H        1.06767000       0.53838600       1.46909400
H        2.86810500      -1.39634600      -0.10003200
H        2.83272900      -1.11686300       1.72836300
