15
Properties=species:S:1:pos:R:3 pbc="F F F"
N       -1.79979400      -0.20761100       1.40851700
C       -0.34107100      -0.29971600       1.32741800
C        0.22339000       0.52261500       0.13788600
C       -0.23400400      -0.01358700      -1.20564400
C        0.57203800      -0.33468800      -2.21765700
O        1.64685300       0.56940900       0.23160500
H       -2.13899800      -0.65384600       2.25686400
H       -2.24208800      -0.65917800       0.61171600
H        0.00837100      -1.35123700       1.25054300
H        0.08382700       0.09997600       2.25662300
H       -0.13192600       1.56677500       0.23753100
H       -1.31202100      -0.12093900      -1.33229600
H        1.64757700      -0.22217300      -2.14059100
H        0.17627500      -0.70091000      -3.15723600
H        2.01060100      -0.30820600       0.05237100
