17
Properties=species:S:1:pos:R:3 pbc="F F F"
C       -0.39961300      -0.32043600      -2.14884000
C       -1.19329400      -0.84299800      -0.95933200
C       -0.61146000      -0.41975300       0.40884300
C       -0.53949300       1.06768900       0.65345000
C        0.70845500       1.40320600       1.04492000
C        1.54636600       0.20556700       1.05888800
C        0.80753800      -0.85808000       0.67671900
H       -0.85723800      -0.63489400      -3.08515300
H        0.62168400      -0.69362800      -2.12976900
H       -0.35716800       0.76621400      -2.14105000
H       -1.23753500      -1.93746100      -0.99922900
H       -2.22859800      -0.48935000      -1.02512200
H       -1.26579600      -0.86773800       1.18198600
H       -1.38323600       1.74159100       0.54898500
H        1.04961300       2.39771400       1.31241000
H        2.59501600       0.18970700       1.33653200
H        1.15226500      -1.88332400       0.59251900
