12
Properties=species:S:1:pos:R:3 pbc="F F F"
O       -1.76890500       0.37381800       0.74920600
C       -0.76337000       0.34513200       0.07985700
C        0.14780100       1.44309200      -0.48908700
C        1.24016200       0.37088000      -0.68600300
C        0.21914700      -0.76462400      -0.33921900
O        0.59327900      -1.70468800       0.64875500
H        0.39008300       2.26112700       0.19336100
H       -0.21913900       1.87801100      -1.42230100
H        2.04757000       0.44899100       0.04334600
H        1.68083600       0.32274200      -1.68366800
H       -0.10046300      -1.32450900      -1.23577500
H        0.54368000      -1.30628700       1.52805500
