16
Properties=species:S:1:pos:R:3 pbc="F F F"
C        1.23998700       0.96958000      -1.28622200
C        0.30290400       0.86429400      -0.06218700
C        0.46631000      -0.49361000       0.63627900
C       -0.64265900      -1.12774600       1.40023000
N       -0.20907000      -1.68696900       0.11743500
N       -1.10512400       1.12423000      -0.42127300
H        1.14610900       1.94328800      -1.76363300
H        1.00057300       0.20815600      -2.02564400
H        2.27918600       0.83613100      -0.99288000
H        0.60025800       1.64873200       0.66025900
H        1.49089400      -0.68780400       0.97861100
H       -1.61253600      -0.62982000       1.42323100
H       -0.41674700      -1.74008100       2.27512800
H       -0.87056500      -1.43611300      -0.62025200
H       -1.42068100       0.46181200      -1.12654500
H       -1.19638300       2.05976100      -0.81000000
