17
Properties=species:S:1:pos:R:3 pbc="F F F"
C       -1.72533400       0.21238000      -2.00849000
C       -2.04457100       0.44734100      -0.53824600
C       -1.47578800      -0.64523500       0.38613000
C        0.03113400      -0.71559000       0.39567400
C        0.82730300       0.29264300       0.79786900
C        2.25615400       0.21366600       0.81664300
C        3.46833300       0.18992300       0.85341100
H       -2.15591700       0.99737800      -2.62676600
H       -2.12565200      -0.74091200      -2.34822500
H       -0.65089200       0.20166300      -2.17731300
H       -3.13059200       0.49110900      -0.40192500
H       -1.65388000       1.42264100      -0.22928900
H       -1.87995600      -1.61644400       0.08608400
H       -1.84201400      -0.46059900       1.40453800
H        0.48867300      -1.64650500       0.06437000
H        0.39744300       1.23782900       1.13456500
H        4.52939700       0.14307700       0.87602400
