15
Properties=species:S:1:pos:R:3 pbc="F F F"
C       -0.57509400      -2.29585100       0.72686500
C       -1.14913500      -1.34103000      -0.31239700
C       -0.68089000       0.09851700      -0.11912100
O        0.74945400       0.13645100      -0.33426100
N        1.38603000       1.33651600      -0.21315500
C        0.71765600       2.40226600       0.08565800
H       -0.91527800      -3.31347800       0.54700800
H       -0.88248600      -2.01036700       1.73130100
H        0.51152200      -2.29008000       0.69502000
H       -2.24383900      -1.36483900      -0.27155400
H       -0.86844700      -1.67905300      -1.31497800
H       -0.91385100       0.46048800       0.90007700
H       -1.18213700       0.77346500      -0.83917500
H        1.28353800       3.33108400       0.16789800
H       -0.36208400       2.46215200       0.26455200
