16
Properties=species:S:1:pos:R:3 pbc="F F F"
C       -2.90753800      -0.24751500      -1.17959600
C       -1.42000300      -0.35709200      -1.06760900
C       -0.66401600       0.42071500      -0.28249800
C        0.83257100       0.31067500      -0.17471000
C        1.30286600       0.02649800       1.26435600
O        2.71722200      -0.03537100       1.33825400
H       -3.20607000      -0.04104600      -2.20880200
H       -3.29862000       0.54477900      -0.54555100
H       -3.38912200      -1.18430100      -0.89359900
H       -0.94452900      -1.12677500      -1.67606000
H       -1.13944300       1.18902300       0.32793500
H        1.29552300       1.24705200      -0.51192700
H        1.20004800      -0.47633100      -0.84362600
H        0.86008300      -0.92335700       1.63055100
H        0.97177500       0.82498500       1.94438200
H        3.04930000      -0.69075300       0.71100500
