17
Properties=species:S:1:pos:R:3 pbc="F F F"
O       -1.35416300      -0.87927200      -1.05477600
C       -1.27748800      -1.11666700       0.34054500
C       -0.66650200       0.10006700       1.06367100
N        0.80646800       0.15136000       1.06961300
C        1.44907300       0.27236200      -0.25287700
C        1.14258600       1.59761300      -0.93950400
H       -1.73648800      -1.64808900      -1.49661800
H       -0.67981500      -2.03239900       0.54040700
H       -2.29630300      -1.31691600       0.73986200
H       -1.00158000       0.08727600       2.11285300
H       -1.05853400       1.02053100       0.61608800
H        1.17093000      -0.68153400       1.53953600
H        1.16788600      -0.56228300      -0.92448000
H        2.53499100       0.18719400      -0.09238700
H        0.09085200       1.66778400      -1.20615400
H        1.72507200       1.69234500      -1.85403400
H        1.38500400       2.44049000      -0.29517500
