17
Properties=species:S:1:pos:R:3 pbc="F F F"
C       -2.06266400       0.03492000      -0.60354500
C       -0.60559200       0.00609500      -0.17500100
C       -0.07526900      -1.19775800       0.63827900
C        1.21137100      -0.88296300       0.82956700
C        1.33868800       0.47390900       0.11830700
C        0.05382600       1.16923500       0.61721500
C        0.56419900       0.17726600      -1.18379400
H       -2.72488600       0.00507600       0.26044500
H       -2.30120800      -0.81887500      -1.23602800
H       -2.28784300       0.93994300      -1.16558600
H       -0.62297700      -2.07453500       0.96589600
H        1.98361600      -1.43573700       1.35277100
H        2.31346300       0.97888000       0.11646600
H       -0.11503100       2.15319800       0.17088400
H       -0.11464500       1.21533500       1.69691500
H        0.86799800      -0.69447100      -1.77035900
H        0.45416500       1.04696500      -1.83757300
