17
Properties=species:S:1:pos:R:3 pbc="F F F"
C       -2.13593800       0.80066200       1.10149000
C       -0.64812900       0.58993600       0.91889200
C        0.09373600       1.31374400      -0.16737800
C       -0.12145300      -0.17021900      -0.26671800
C        1.05917700      -1.13372800      -0.10953600
N        1.80223700      -1.35495900      -1.35856900
H       -2.33717000       1.69526500       1.69066800
H       -2.59072300      -0.04307500       1.62015900
H       -2.63643700       0.91275600       0.14226600
H       -0.09813300       0.45346700       1.85222000
H        1.09562900       1.66990300       0.05291600
H       -0.47539900       1.95565700      -0.83237400
H       -0.86627600      -0.48568400      -1.00018700
H        1.75355700      -0.74806900       0.64953500
H        0.69874400      -2.10758300       0.25433000
H        2.16716800      -0.47326800      -1.71090100
H        1.18901500      -1.74703500      -2.06915200
