21
Properties=species:S:1:pos:R:3 pbc="F F F"
C        0.22943800       0.80753100      -1.42249100
C       -0.30579400      -0.22541500      -0.42305600
C       -1.84292700      -0.13080900      -0.26390900
C       -2.35877900       1.18176900       0.31439600
C        0.40965900      -0.11795300       0.94078000
C        1.84403200      -0.57302500       0.98237400
C        2.49535600      -1.28103600       0.05893200
H        1.29730900       0.67533100      -1.57876800
H        0.06983600       1.82288600      -1.06522900
H       -0.26897100       0.70880000      -2.38497700
H       -0.10129200      -1.22727600      -0.83457000
H       -2.30500800      -0.29320300      -1.24366600
H       -2.17885600      -0.95683900       0.37291400
H       -2.09486800       2.02578200      -0.31885900
H       -1.95160600       1.36769000       1.30599700
H       -3.44328000       1.15726500       0.40045600
H       -0.14916800      -0.70146700       1.68692700
H        0.36742700       0.91826800       1.29864900
H        2.37609500      -0.30000900       1.89574000
H        2.02844200      -1.59309100      -0.86714500
H        3.52802900      -1.57050700       0.21037700
