13
Properties=species:S:1:pos:R:3 pbc="F F F"
N       -1.47299000       0.39375800       0.27545700
C        0.00604700       0.33120300       0.28367600
C        0.51021100      -0.69454400       1.22767700
C        0.89627000      -1.54307900       1.99667900
C        0.50835200       0.07794400      -1.15656600
O       -0.00466300       1.07537000      -2.01552000
H       -1.81953600       0.64704500       1.19873700
H       -1.86082600      -0.51718800       0.03556700
H        0.37638800       1.31762700       0.61803900
H        1.24631400      -2.28200600       2.67565100
H        0.18919900      -0.92979300      -1.49724900
H        1.60689200       0.10845000      -1.19968900
H       -0.91547700       1.26746000      -1.74389800
