19
Properties=species:S:1:pos:R:3 pbc="F F F"
N       -2.62507600      -0.46374000      -0.31299700
C       -1.16571300      -0.53025800      -0.44322200
C       -0.49928200       0.46515100       0.51170200
C        1.04562100       0.49256400       0.46435400
C        1.66683200      -0.84663900       0.88269200
C        1.58087600       0.94635000      -0.90061100
H       -3.07275400      -1.10030400      -0.96701700
H       -2.95824800       0.47876700      -0.49940000
H       -0.83883900      -0.32976200      -1.48501300
H       -0.84191100      -1.55459300      -0.21039700
H       -0.81686000       0.23967700       1.53501900
H       -0.87482900       1.47154400       0.29149800
H        1.36480900       1.24518500       1.20478500
H        1.43950200      -1.63352900       0.16656000
H        1.29432900      -1.16037300       1.85558600
H        2.74969900      -0.76198500       0.94747000
H        1.36257200       0.21682500      -1.67783100
H        2.66067600       1.07648600      -0.86356900
H        1.13738000       1.89523400      -1.19621100
