21
Properties=species:S:1:pos:R:3 pbc="F F F"
C       -2.79009000      -1.74737900      -0.90266400
C       -1.30801400      -1.43901700      -1.07346400
C       -0.81484400      -0.35542400      -0.10677000
C        0.67319200      -0.05204900      -0.29528500
C        1.25763100       0.99676500       0.62803000
C        0.55523800       1.65200600       1.56249400
C        2.72578000       1.26785000       0.42647300
H       -3.10787800      -2.52162600      -1.59778000
H       -3.39771300      -0.86324600      -1.08512100
H       -3.00370900      -2.09445000       0.10629300
H       -1.11798900      -1.12259200      -2.10483700
H       -0.72528500      -2.35428400      -0.92277000
H       -0.99967800      -0.67717800       0.92319500
H       -1.40053600       0.55739000      -0.25579300
H        0.85244200       0.26197900      -1.33265600
H        1.25209400      -0.97805800      -0.17660000
H       -0.49931800       1.46907700       1.72091100
H        1.02992300       2.39308500       2.19346300
H        3.31206500       0.36020200       0.57667000
H        3.08970300       2.02693000       1.11395300
H        2.92252100       1.60625400      -0.59181300
