14
Properties=species:S:1:pos:R:3 pbc="F F F"
O       -0.95625800      -2.03681700       0.05176700
C       -1.48479600      -0.77665000      -0.31582800
C       -0.97362600       0.29681100       0.64582300
C        0.55924100       0.36144200       0.72713900
C        1.22213000       0.89069600      -0.53756600
O        2.11635600       1.69849400      -0.54039300
H       -1.31014000      -2.72513100      -0.52577700
H       -2.59469900      -0.80560500      -0.29053100
H       -1.20293000      -0.53664900      -1.36413600
H       -1.36450700       0.08730500       1.64639200
H       -1.37894600       1.27076100       0.35048100
H        0.93812200      -0.65118500       0.90850300
H        0.86627000       0.97526900       1.57823000
H        0.82835700       0.45803100      -1.51156100
