19
Properties=species:S:1:pos:R:3 pbc="F F F"
C       -1.24412700       1.52625800      -1.14448900
C        0.20667900       1.18044600      -0.96835600
C        0.76467400       0.30378600      -0.10870200
C        0.07985300      -0.59147600       0.88785600
C       -1.39658700      -0.75485200       1.09339900
C       -0.61792600      -1.85576600       0.45268800
C        2.26806900       0.14473000      -0.09884800
H       -1.34806800       2.33732000      -1.86138600
H       -1.70497500       1.85302700      -0.21192900
H       -1.82715900       0.68392900      -1.52156500
H        0.88908900       1.72177000      -1.62334200
H        0.67266800      -0.71650900       1.79783900
H       -2.09575600      -0.20454900       0.47732100
H       -1.73316400      -0.90756100       2.11454200
H       -0.75761200      -2.01296900      -0.61144300
H       -0.43868200      -2.76234600       1.02285900
H        2.74602900       0.78959700      -0.83258300
H        2.55450000      -0.88581600      -0.31478500
H        2.67931500       0.38535500       0.88318000
