18
Properties=species:S:1:pos:R:3 pbc="F F F"
C       -2.41019800       1.38474100       0.94130800
N       -0.95597100       1.28910600       0.86116300
C       -0.48367900       0.27291700      -0.09060700
C        1.04558000       0.19017700      -0.05925900
N        1.58157000      -0.74796200      -1.05855400
C        1.35433100      -2.15903200      -0.75604700
H       -2.68790100       2.14518000       1.67514500
H       -2.89429900       0.43469000       1.23376700
H       -2.82201100       1.67767600      -0.02843900
H       -0.56891000       1.09995300       1.78897500
H       -0.82398300       0.54465300      -1.10049200
H       -0.92511900      -0.72324500       0.12635100
H        1.37832700      -0.07324100       0.96906100
H        1.46712900       1.18155600      -0.27493700
H        2.58498500      -0.58426800      -1.16685400
H        0.28699900      -2.39366700      -0.78688000
H        1.73221800      -2.45613500       0.23934400
H        1.85717400      -2.77397800      -1.50567000
