19
Properties=species:S:1:pos:R:3 pbc="F F F"
C        0.13007100      -1.84821800       0.09422900
C       -0.28469500      -0.39018500       0.32380600
C       -1.81988800      -0.23918100       0.21839700
C       -2.34824900       1.10553900       0.70318600
C        0.44377300       0.55241600      -0.66729800
C        1.89851700       0.53118000      -0.51474000
C        3.10089700       0.53244800      -0.39340800
H        1.20791900      -1.96066600       0.18223400
H       -0.16247700      -2.18704400      -0.89810800
H       -0.34117600      -2.50437100       0.82355400
H        0.01765700      -0.10503200       1.34316000
H       -2.13297400      -0.40461500      -0.81815700
H       -2.28719000      -1.03471500       0.80813300
H       -1.97473800       1.92808900       0.09633000
H       -2.05451400       1.29244800       1.73429200
H       -3.43493600       1.12780200       0.65551100
H        0.09341900       1.58310800      -0.52714500
H        0.18894900       0.27470700      -1.69877600
H        4.15749700       0.52629700      -0.28605700
