12
Properties=species:S:1:pos:R:3 pbc="F F F"
O       -1.06772200       0.38706300       1.23149000
C        0.31258700       0.32554200       1.12280300
C        1.01184100       1.09106700       0.05934100
C        0.92301400      -0.43175200      -0.06936900
C       -0.02074300      -0.99212900      -1.06854100
O       -1.08670800      -0.46622800      -1.33973300
H       -1.46101100       0.28608100       0.34049300
H        0.80278300       0.19490400       2.09354900
H        1.99927200       1.49752400       0.25646100
H        0.40969000       1.65527200      -0.64585600
H        1.84486600      -0.98714800       0.10383800
H        0.27964700      -1.96968400      -1.54794500
