17
Properties=species:S:1:pos:R:3 pbc="F F F"
N       -2.61121000       0.29502200      -0.55211800
C       -1.14779800       0.40061300      -0.50571000
C       -0.52302600      -0.96340800      -0.19645400
C        1.01082400      -0.97552700      -0.24504000
C        1.69909600      -0.14999100       0.85456900
O        1.59762900       1.24865400       0.63519800
H       -3.02794400       1.20403600      -0.73522000
H       -2.97162400      -0.05102600       0.33359900
H       -0.81155300       1.14432000       0.24096400
H       -0.79242300       0.75772600      -1.48395200
H       -0.90393600      -1.69898400      -0.91273300
H       -0.85739700      -1.29998500       0.79198300
H        1.35228100      -0.62403500      -1.22647900
H        1.35389200      -2.01291700      -0.15875300
H        2.77104300      -0.44054200       0.91070900
H        1.25542500      -0.36143400       1.83860800
H        1.89509300       1.45832900      -0.25966600
