18
Properties=species:S:1:pos:R:3 pbc="F F F"
C        0.33999400       2.27493100       0.01679100
C        1.34525100       1.11946700       0.06715800
C        0.21523000       0.21248000      -0.47104100
N       -0.67236400       1.40488400      -0.62210300
C       -0.31106700      -0.84989000       0.48824500
C        0.22283800      -2.24980400       0.42694800
C       -1.17374500      -1.96389800      -0.02575200
H        0.62824100       3.14022700      -0.60182000
H        0.03590800       2.65654300       1.00487800
H        1.71972300       0.86744900       1.06253900
H        2.20044800       1.22763900      -0.60468400
H        0.44289600      -0.25769700      -1.44797800
H       -1.54263700       1.33319300      -0.08954300
H       -0.55909200      -0.47865800       1.48475400
H        0.35512600      -2.79025000       1.35887900
H        0.96209400      -2.48054700      -0.33402700
H       -1.99108200      -2.30988600       0.59909800
H       -1.37607800      -2.00192000      -1.09146700
