10
Properties=species:S:1:pos:R:3 pbc="F F F"
C       -2.16311400       1.47588600      -1.24478900
C       -0.82645900       1.38220000      -1.16592000
C       -0.13002900       0.42965600      -0.36249100
C        0.53227200      -0.35664300       0.30076600
C        1.24447900      -1.26370800       1.06589400
C        1.87851300      -2.05815000       1.73608300
H       -2.62913700       2.22293300      -1.87489300
H       -2.81187000       0.81321300      -0.68573500
H       -0.19571400       2.06422000      -1.74129700
H        2.42275100      -2.75580500       2.32467000
