14
Properties=species:S:1:pos:R:3 pbc="F F F"
C       -2.27040800      -0.03465500       0.66726200
C       -1.30377400      -0.76724400       0.11471600
C       -0.46926100      -0.32769200      -1.05677300
C        1.04507600      -0.43661600      -0.79057600
C        1.52034600       0.49831900       0.22933600
C        1.92954900       1.27345100       1.06048500
H       -2.84768300      -0.40677600       1.50466800
H       -2.50582800       0.95860400       0.30298700
H       -1.08709900      -1.75989900       0.51162300
H       -0.72508200       0.69709300      -1.33956100
H       -0.70504200      -0.96262100      -1.92217600
H        1.59308600      -0.25065700      -1.72411200
H        1.29342100      -1.46068300      -0.48133900
H        2.27505200       1.95156500       1.80120300
