11
Properties=species:S:1:pos:R:3 pbc="F F F"
O        0.65765000       1.34695800      -0.38175600
C        0.16253700       0.03811900      -0.57786300
C       -1.31835900       0.06291200      -0.55720300
N       -2.46725000       0.01962400      -0.56864800
C        0.70021400      -0.95825600       0.44216500
C        1.45099600      -0.63105200       1.49204200
H        1.62163400       1.32800000      -0.31219000
H        0.45880200      -0.32462800      -1.59704000
H        0.43993100      -2.00155500       0.26411600
H        1.70339800       0.40155500       1.70683100
H        1.81346000      -1.38673600       2.17802600
