15
Properties=species:S:1:pos:R:3 pbc="F F F"
C       -0.57088000      -1.81985200       1.97948000
C       -0.82844800      -0.60351000       1.47666000
C       -0.20659800      -0.02821000       0.28357200
C        0.72964100      -0.58717400      -0.53526300
C        1.07684300       0.36801100      -1.63355000
C        0.21137500       1.55517700      -1.33524100
C       -0.52179200       1.31215300      -0.22907600
H       -1.07493700      -2.17537500       2.86952300
H        0.14616700      -2.48687200       1.51490700
H       -1.55907400       0.02916100       1.98172800
H        1.17097800      -1.57221100      -0.42845000
H        0.87329000      -0.05096300      -2.62868900
H        2.14489600       0.62627100      -1.63881800
H        0.19483500       2.45931600      -1.93380200
H       -1.23699700       1.99110400       0.22410700
