17
Properties=species:S:1:pos:R:3 pbc="F F F"
C       -1.79527900       0.79449700      -0.00448400
C       -0.26509700       0.70845900       0.02452000
N        0.15122200      -0.03678600       1.23943900
C        1.58959300      -0.14779400       1.45189600
C        0.28339800       0.09134300      -1.29477900
O       -0.08374500      -1.27294200      -1.43423100
H       -2.18018300       1.20648200       0.92595700
H       -2.23261500      -0.19196800      -0.14519900
H       -2.13084100       1.42864800      -0.82240800
H        0.14720000       1.73243700       0.10791900
H       -0.29093500      -0.95834900       1.25551500
H        2.04364500       0.84616500       1.46656600
H        2.11463500      -0.74247400       0.68126600
H        1.77910200      -0.62276400       2.41831000
H        1.38857000       0.19154900      -1.33405000
H       -0.12203700       0.63259000      -2.16206100
H        0.21917100      -1.76030200      -0.65696000
