19
Properties=species:S:1:pos:R:3 pbc="F F F"
C       -2.35365400      -1.20101700       0.52836200
C       -0.89892000      -0.96931900       0.14806900
C       -0.56092800       0.41845400      -0.35430700
C       -1.45113300       1.41326300      -0.46558300
C        0.89352900       0.62411100      -0.74830000
C        1.84706100       0.43211900       0.40354000
C        2.88854700      -0.40036800       0.38885000
H       -2.49497200      -2.22293500       0.87419400
H       -3.01518200      -1.04152700      -0.32038400
H       -2.66539500      -0.53195400       1.32734300
H       -0.60243700      -1.69630100      -0.61963900
H       -0.25558500      -1.18721600       1.01025600
H       -2.49150000       1.28123600      -0.19826600
H       -1.15240000       2.38889900      -0.82951100
H        1.01679900       1.63914700      -1.14612500
H        1.15615800      -0.06827600      -1.55746900
H        1.65749000       1.03851300       1.28936900
H        3.10770500      -1.01850400      -0.47427000
H        3.55231400      -0.48454800       1.24071500
