18
Properties=species:S:1:pos:R:3 pbc="F F F"
C       -0.97205400       0.66614300      -2.00988500
C       -1.35584500       1.23224900      -0.64885700
C       -0.79683400       0.41061200       0.52386500
C        0.70679000       0.44709000       0.60242900
C        1.52892500      -0.58921600       0.81694000
C        1.14237300      -2.02286600       1.00691200
H       -1.38290100       1.27394500      -2.81363100
H       -1.34773000      -0.34806200      -2.13030300
H        0.10878300       0.63621300      -2.12751100
H       -2.44749900       1.27380700      -0.56645300
H       -1.00069400       2.26548700      -0.56950600
H       -1.15667700      -0.62018600       0.45618400
H       -1.20874100       0.81886400       1.45805300
H        1.15365300       1.43553500       0.48828600
H        2.59953300      -0.38877100       0.86922300
H        0.09606300      -2.20442000       0.77478700
H        1.31594600      -2.33632800       2.03856400
H        1.75012800      -2.67016100       0.37388200
