8
Properties=species:S:1:pos:R:3 pbc="F F F"
N       -2.95431600       0.43189900      -0.39830400
C       -1.80005900       0.41269100      -0.38056400
C       -0.36657300       0.41609200      -0.38367300
C        0.36657400      -0.41609000       0.38367200
C        1.80004500      -0.41267600       0.38055000
N        2.95432600      -0.43191300       0.39831600
H        0.11075500       1.13583300      -1.04732200
H       -0.11075100      -1.13583500       1.04732400
