16
Properties=species:S:1:pos:R:3 pbc="F F F"
C       -2.21411300      -0.75087300       1.58079200
O       -0.82442400      -0.73007300       1.34874000
C       -0.44372600       0.06010600       0.25058600
O        0.95216700      -0.03230500       0.13494000
C        1.54577000       0.85979300      -0.80789800
C        1.28237800       0.45339900      -2.25745100
H       -2.40965500      -1.39938100       2.43937100
H       -2.76520700      -1.13996400       0.70399000
H       -2.60316900       0.26140900       1.79977700
H       -0.76567100       1.13679800       0.39637100
H       -0.96595000      -0.29391300      -0.68970600
H        2.62774700       0.85252200      -0.60559900
H        1.18077800       1.89314500      -0.62726200
H        1.59130200      -0.57460300      -2.43202000
H        1.83892100       1.09477000      -2.93812600
H        0.22711300       0.53369100      -2.51240900
