17
Properties=species:S:1:pos:R:3 pbc="F F F"
C        0.41189400      -0.05718900       2.68394300
C        0.60834800      -0.95964400       1.50623100
C        0.10791200      -0.80649100       0.27246600
C       -0.78000300       0.30638800      -0.21725300
C       -0.21002700       1.04651300      -1.44023300
N       -0.18938200       0.19491300      -2.63142800
H       -0.09278300      -0.58761100       3.49343300
H       -0.17633900       0.82358600       2.44079300
H        1.37424900       0.27463600       3.07686600
H        1.22943300      -1.83520300       1.69851100
H        0.35175200      -1.56900600      -0.46836900
H       -0.96189000       1.03139100       0.58141600
H       -1.75754100      -0.11234300      -0.48905700
H        0.79768500       1.44258100      -1.19593200
H       -0.84101200       1.92294400      -1.65191800
H        0.37794900      -0.63346300      -2.47169100
H        0.19542400       0.70062900      -3.42497400
