14
Properties=species:S:1:pos:R:3 pbc="F F F"
C       -2.13203300       1.13372800      -1.26274700
C       -1.17028300       0.34087500      -0.79121000
C       -0.45362700       0.56167800       0.52477700
N        1.00129400       0.45865300       0.39546000
C        1.67998300      -0.75070000       0.39949500
N        1.21002600      -1.91077500       0.72651100
H       -2.62237200       0.92365400      -2.20563400
H       -2.46050500       2.01207800      -0.71770700
H       -0.85865500      -0.53342100      -1.36143900
H       -0.78785900      -0.18762300       1.25885700
H       -0.70670100       1.54816900       0.93890500
H        1.45256900       1.23175600      -0.08502000
H        2.74392700      -0.65081100       0.12649900
H        0.21610900      -1.89243600       0.96985400
