17
Properties=species:S:1:pos:R:3 pbc="F F F"
C        1.36010100      -1.60242700      -0.89298200
C        0.77015000      -0.31496700      -0.29713600
C       -0.77348900      -0.36570600      -0.22412900
C       -1.36012500       0.82484300       0.54467700
N       -1.07238500       0.72351100       1.97740100
O        1.18735200       0.81531900      -1.07388900
H        2.44276700      -1.53023800      -0.96419600
H        0.97192200      -1.78773400      -1.89404300
H        1.11829600      -2.46605900      -0.27672700
H        1.17743500      -0.15849600       0.71674100
H       -1.18343100      -0.38131500      -1.24067900
H       -1.08706500      -1.30157600       0.25150600
H       -2.45253200       0.88378800       0.34793100
H       -0.92184900       1.75667000       0.16527100
H       -1.51325000      -0.10118300       2.37679800
H       -1.41292800       1.54432800       2.47062400
H        0.88869000       0.70422800      -1.98649500
