19
Properties=species:S:1:pos:R:3 pbc="F F F"
C        1.47864300      -0.18110300      -2.49142200
C        0.66649400      -1.20196900      -1.75825200
C       -0.21324100      -0.98389000      -0.77133600
C       -0.61258800       0.34583100      -0.19130600
C       -0.47360000       0.45197700       1.31673200
C        0.21253400      -0.43180300       2.05378700
C       -1.14534900       1.64531300       1.94194200
H        1.21768900      -0.17231200      -3.55134600
H        2.54085100      -0.42254900      -2.43074100
H        1.33686400       0.82329400      -2.10123400
H        0.82472800      -2.23186100      -2.07982200
H       -0.72386700      -1.84746600      -0.34492700
H       -1.66363800       0.54513900      -0.45138500
H       -0.04182700       1.16029200      -0.65444200
H        0.70197000      -1.28397000       1.59990400
H        0.30119600      -0.31295400       3.12670500
H       -2.22230800       1.62009300       1.76879900
H       -0.77627000       2.57337800       1.50311600
H       -0.97275000       1.68277700       3.01449600
