17
Properties=species:S:1:pos:R:3 pbc="F F F"
C       -1.10259100       0.75408900      -1.59300900
N       -1.30941800       1.28718100      -0.24669300
C       -0.77412100       0.43779300       0.82943800
C        0.76445200       0.36141500       0.81513100
O        1.28034400      -0.60115000      -0.11418200
C        1.22705600      -1.93906600       0.33229800
H       -1.54539700       1.43572600      -2.32392900
H       -1.55899200      -0.24158100      -1.73614500
H       -0.03599200       0.66562200      -1.80351800
H       -2.30935200       1.43662900      -0.09035000
H       -1.19962700      -0.58727700       0.79792600
H       -1.09577200       0.87576100       1.78652200
H        1.13554900       0.11898100       1.83262800
H        1.18956400       1.33564500       0.53059100
H        1.69380000      -2.57027900      -0.43081700
H        0.18857300      -2.28632300       0.48805500
H        1.77203700      -2.06936500       1.28620000
