19
Properties=species:S:1:pos:R:3 pbc="F F F"
C       -2.24673200       0.67074500       0.48343500
C       -0.72395600       0.56130800       0.29112300
C       -0.39011600       0.68361500      -1.13927800
C       -0.17489100       0.81990500      -2.32080700
C       -0.18256400      -0.74849500       0.92178500
C        1.32825600      -0.75535400       1.19486000
C        2.19598300      -0.86446500      -0.05212300
H       -2.49908500       0.65805500       1.54230800
H       -2.76170600      -0.15908300       0.00438500
H       -2.62725800       1.59477600       0.05424700
H       -0.25319500       1.41390300       0.81311100
H        0.04797400       0.92130100      -3.35432800
H       -0.45085500      -1.59868400       0.28798200
H       -0.70312600      -0.89833500       1.87446100
H        1.55166000      -1.59987200       1.85651600
H        1.60022100       0.14817400       1.75228500
H        1.94392700      -1.75445700      -0.62490800
H        3.24770700      -0.92724200       0.22069100
H        2.06785500      -0.00209400      -0.70071700
