18
Properties=species:S:1:pos:R:3 pbc="F F F"
C       -1.11083100      -1.69443900       1.07955100
C       -1.45105700      -0.23296800       0.81260600
C       -0.78695300       0.32896900      -0.45001900
C        0.71565500       0.52696400      -0.40458300
C        1.44894100       0.49681900       0.71669400
C        1.35287400       0.80544000      -1.74097300
H       -1.62085400      -2.05190000       1.97181700
H       -0.04196000      -1.82958900       1.22519500
H       -1.41502600      -2.32363000       0.24528900
H       -1.17725500       0.37523500       1.68048500
H       -2.53666700      -0.13407600       0.70231100
H       -1.24634800       1.29831900      -0.69006500
H       -1.02605200      -0.31930100      -1.30219000
H        1.00680400       0.30471700       1.68518600
H        2.51797100       0.66733300       0.68352200
H        0.88760700       1.66787200      -2.22032500
H        1.22239100      -0.04072600      -2.41716600
H        2.41761200       1.00103800      -1.64372100
