15
Properties=species:S:1:pos:R:3 pbc="F F F"
C       -1.35430200       0.17829300       1.75697800
C       -1.63318300       0.14545500       0.25986900
O       -0.89121100      -0.90997800      -0.41242900
N        0.42920000      -0.72479800      -0.72120400
C        1.02419300       0.38920600      -0.43206200
C        2.46926200       0.56607000      -0.80278600
H       -1.95563000       0.94668500       2.24007800
H       -0.30788000       0.38493800       1.96807500
H       -1.60134100      -0.77831700       2.21198000
H       -1.43809600       1.11993600      -0.22036500
H       -2.69049200      -0.10039500       0.07857300
H        0.54298500       1.24411000       0.06780500
H        2.86202900      -0.32217800      -1.29056500
H        3.07911300       0.77106700       0.07927700
H        2.59878300       1.41342100      -1.47900600
