17
Properties=species:S:1:pos:R:3 pbc="F F F"
C       -1.84995700      -1.37048000       1.20154900
C       -0.35043300      -1.16669800       1.05143400
C        0.07340800      -0.07997600       0.07711600
C       -0.78761500       0.69099200      -0.62326800
C       -0.38608300       1.76330900      -1.58392700
C        1.50220500       0.07658400      -0.05419000
C        2.71072600       0.15389000      -0.11842500
H       -2.04955300      -2.16952700       1.91239800
H       -2.31187200      -1.64490600       0.25535300
H       -2.34046800      -0.47073700       1.56741100
H        0.11463800      -2.11094200       0.74113600
H        0.08495600      -0.94127600       2.03326300
H       -1.85766200       0.53871100      -0.49483300
H        0.69477100       1.85348600      -1.65405900
H       -0.79346500       2.72955600      -1.27890600
H       -0.78017800       1.55803200      -2.58152900
H        3.76532400       0.25187700      -0.20196800
