13
Properties=species:S:1:pos:R:3 pbc="F F F"
N       -0.59478200      -1.84189600       0.08062700
N       -1.35686000      -0.71636500       0.03593600
C       -0.54763600       0.37336100      -0.01277600
C        0.75682300      -0.03991500      -0.00028800
C        0.70522800      -1.45631700       0.05933800
C        1.28231100       1.39193500      -0.06479900
C       -0.21404400       1.84662300      -0.07844700
H       -2.37101900      -0.78154900       0.04248500
H        1.50026200      -2.19460200       0.08729700
H        1.84700300       1.65165000      -0.96767400
H        1.85466700       1.72924600       0.80708200
H       -0.53636000       2.36550300      -0.98908600
H       -0.52915100       2.44345800       0.78578500
