19
Properties=species:S:1:pos:R:3 pbc="F F F"
C        1.40183500      -1.13918600       0.91118300
C        0.78175900       0.15469600       0.33989000
C       -0.77495500       0.12828200       0.37332300
C       -1.38272400      -0.94911000      -0.53450400
C       -1.34349900       1.51043200       0.02770900
N        1.27834800       0.44845000      -1.01886400
H        2.48586400      -1.05302100       0.95832900
H        1.16736300      -2.00263600       0.29201000
H        1.03789700      -1.33816900       1.91720700
H        1.10407200       0.99072100       0.98873900
H       -1.06667800      -0.10836200       1.41020100
H       -1.15676300      -0.75783900      -1.58141700
H       -2.46582500      -0.96565800      -0.42952300
H       -1.00813200      -1.93910100      -0.28230700
H       -1.05095000       1.80778300      -0.97648300
H       -0.97665500       2.26524700       0.72087000
H       -2.43079500       1.50638000       0.07639300
H        1.02527800      -0.30190400      -1.65739800
H        2.29239600       0.52671800      -1.01016800
