18
Properties=species:S:1:pos:R:3 pbc="F F F"
C       -1.14689000       0.25021200       2.08443900
N       -1.37489300       0.63563000       0.69556100
C       -0.81598400      -0.28538800      -0.30893700
C        0.74479100      -0.31607400      -0.39336400
N        1.20125200      -1.35407700      -1.34396900
C        1.32817300       1.04080000      -0.80087900
H       -1.64366700       0.96502000       2.74575800
H       -0.08009700       0.21693600       2.37063000
H       -1.57023900      -0.73998200       2.27307300
H       -1.03337200       1.58508200       0.53215200
H       -1.22309700      -0.00813300      -1.29389200
H       -1.18126800      -1.29895300      -0.09076600
H        1.14488900      -0.58478700       0.60058800
H        0.88482900      -1.13398700      -2.28559900
H        0.82389400      -2.26247700      -1.08475000
H        0.94117800       1.35852700      -1.76809500
H        2.41156900       0.98540600      -0.87659100
H        1.08033200       1.80918700      -0.07120200
