15
Properties=species:S:1:pos:R:3 pbc="F F F"
C       -0.75785300       2.93623000       0.66430300
C       -1.31821300       1.74671700       0.39863400
C       -0.61154600       0.49565100       0.11646100
C        0.72541200       0.34309100       0.08971900
C        1.44568500      -0.94663600      -0.19944300
C        0.58228900      -2.09316400      -0.48361200
C       -0.09847100      -3.06214600      -0.72194500
H       -1.36959000       3.80772700       0.86115300
H        0.31734800       3.07031200       0.69200900
H       -2.40587300       1.67880300       0.38499700
H       -1.23867800      -0.37148300      -0.08525500
H        1.37353400       1.19669100       0.29004700
H        2.09876100      -1.19690300       0.65214000
H        2.13031600      -0.79785500      -1.04981900
H       -0.70963400      -3.90575100      -0.92997400
