19
Properties=species:S:1:pos:R:3 pbc="F F F"
C       -0.22742500       1.65207000       1.28898000
N       -0.57157900       1.02572500       0.01568700
C        0.01775200      -0.31905500      -0.25835100
C       -0.46105800      -1.33499700       0.80062300
C       -0.48923600      -0.75263100      -1.65377400
C        1.57286700      -0.27418200      -0.27643000
H       -0.69883500       2.63686800       1.33700400
H        0.85748900       1.79555900       1.43997500
H       -0.60393200       1.05956400       2.12644500
H       -0.32580700       1.65592900      -0.75123400
H       -1.54661200      -1.34650100       0.86271500
H       -0.06788100      -1.09547900       1.78592500
H       -0.12568600      -2.33749400       0.54434100
H       -1.57568500      -0.79266800      -1.67541600
H       -0.10870600      -1.73646200      -1.91789900
H       -0.16452400      -0.05027600      -2.41943300
H        1.97126400      -0.01384800       0.70107800
H        1.93133100       0.46044800      -0.99460400
H        1.98123700      -1.24294600      -0.55498600
