14
Properties=species:S:1:pos:R:3 pbc="F F F"
C       -1.32436800      -0.64628500      -0.62959800
C        0.17537400      -0.66851000      -0.66831100
C        0.85048500      -1.49636600      -1.47867900
C        0.93018000       0.28977500       0.24625100
C        0.08543600       1.11625400       1.10791100
C       -0.57476400       1.81852400       1.83635900
H       -1.74832100      -1.37343800      -1.31783400
H       -1.70155700       0.34216300      -0.89335100
H       -1.68699500      -0.86584000       0.37488900
H        0.33025600      -2.18044200      -2.13684300
H        1.93350200      -1.50594500      -1.50122000
H        1.56209900       0.95341800      -0.36125100
H        1.62530900      -0.27870600       0.88014600
H       -1.16835300       2.42843100       2.47186200
