15
Properties=species:S:1:pos:R:3 pbc="F F F"
O       -0.12606700      -1.81327500       1.83939300
C       -0.45422400      -0.85866100       0.84698800
C        0.81355000      -0.48841300       0.08049500
C        0.66405100       0.62577000      -0.94957900
C       -0.63595900       1.00430000      -1.57366600
N        0.00738800       1.89073800      -0.60258100
H       -0.91821400      -2.06635900       2.32984400
H       -0.90874500       0.03927500       1.32094200
H       -1.22476400      -1.27477000       0.16243600
H        1.19441500      -1.38518900      -0.42186300
H        1.58686900      -0.20458100       0.80368500
H        1.56219900       0.76582100      -1.56444300
H       -1.55095000       0.49718600      -1.26125900
H       -0.65488900       1.37466900      -2.59988100
H       -0.45361000       1.82700900       0.30803900
