14
Properties=species:S:1:pos:R:3 pbc="F F F"
C       -2.67175500       0.58506200       0.33034000
C       -1.19196000       0.44497300       0.44840900
C       -0.41918100      -0.20662000      -0.43844900
C        1.06320700      -0.35795800      -0.33735400
O        1.68078900      -0.97011900      -1.19663700
C        1.79149600       0.26339700       0.85612700
H       -2.95624400       1.63788500       0.29362700
H       -3.16916100       0.15581000       1.20157800
H       -3.05213700       0.09316100      -0.56122700
H       -0.73490700       0.91269700       1.32224200
H       -0.88256400      -0.67099100      -1.30792700
H        1.42892500      -0.15548900       1.79361200
H        1.63058700       1.33974100       0.89301800
H        2.85834400       0.07500400       0.78373500
