19
Properties=species:S:1:pos:R:3 pbc="F F F"
C        1.35002700       0.05511000      -1.13285300
C        0.78880400      -0.27034500       0.26716500
C       -0.76693100      -0.23242900       0.34262500
C       -1.39398400      -1.39974400      -0.43123400
C       -1.36417500       1.10435600      -0.11629500
N        1.35929100       0.61786200       1.30200300
H        2.43133800      -0.06977700      -1.14498900
H        1.13312100       1.08235100      -1.41796400
H        0.92992900      -0.60178000      -1.89114800
H        1.09991400      -1.30088200       0.52223300
H       -1.02682700      -0.36221700       1.40465900
H       -1.19661500      -1.32257100      -1.49882200
H       -2.47346600      -1.41442800      -0.29540200
H       -0.99925700      -2.35376500      -0.08636600
H       -1.19085700       1.27554300      -1.17669900
H       -0.93494100       1.93842400       0.43469800
H       -2.43980400       1.11528000       0.04829400
H        1.09502500       1.58410400       1.12378500
H        2.37495600       0.56299500       1.28725500
