19
Properties=species:S:1:pos:R:3 pbc="F F F"
C       -0.54044100       0.09420800      -1.93185000
C       -1.02032500       0.03447100      -0.47364300
C       -0.72846600       1.29455400       0.23346000
C       -0.56553200       2.35152400       0.79687600
C       -0.50032900      -1.21655100       0.28377300
C        1.01663800      -1.45174800       0.26767200
C        1.82598000      -0.41789000       1.03922800
H       -0.76810400      -0.83812100      -2.44540200
H        0.53217900       0.26100000      -1.99129900
H       -1.03427700       0.90452700      -2.46366100
H       -2.12265700      -0.05620700      -0.49267700
H       -0.38061700       3.26778300       1.30128100
H       -0.98604100      -2.09317500      -0.16067500
H       -0.84839600      -1.16536300       1.32019000
H        1.37259900      -1.49887300      -0.76678500
H        1.20558200      -2.44260000       0.69601500
H        1.73722700       0.56772200       0.59050600
H        2.87987000      -0.68984100       1.04860000
H        1.48748500      -0.34826100       2.07081200
