13
Properties=species:S:1:pos:R:3 pbc="F F F"
C        0.89210700       1.52065800      -0.04706800
C        0.36753700       0.19785200      -0.62808700
C       -1.11752800       0.16120900      -0.63663000
N       -2.26754300       0.14798500      -0.66919000
O        0.90511800      -0.94836900       0.04653600
C        0.47913600      -1.13420900       1.38934700
H        1.97946000       1.51648800      -0.03404900
H        0.54001200       1.67911000       0.96968700
H        0.55912900       2.36071700      -0.65292800
H        0.70623200       0.10588500      -1.67921200
H        0.88729800      -2.08862100       1.73260900
H       -0.61924000      -1.16350200       1.46122700
H        0.85145400      -0.33207300       2.04934200
