12
Properties=species:S:1:pos:R:3 pbc="F F F"
O       -0.28092300       1.23963100       1.39316800
C       -1.46327600       1.19122700       0.60645800
C       -0.48356900       0.08233800       0.57449700
C        0.48374600      -0.08215800      -0.57460500
O        0.28044400      -1.23995400      -1.39253600
C        1.46347600      -1.19106800      -0.60687600
H       -1.50175400       1.91444700      -0.21815100
H       -2.39559800       1.08742500       1.17514400
H       -0.71056800      -0.83434700       1.14154700
H        0.71114000       0.83428700      -1.14204600
H        2.39532700      -1.08748500      -1.17655600
H        1.50301900      -1.91378400       0.21816600
