15
Properties=species:S:1:pos:R:3 pbc="F F F"
C        0.43041700       1.60013400       0.11524400
C       -0.01121500       0.21438300      -0.37648500
C       -1.48092600       0.14830600      -0.46687400
N       -2.62735800       0.08960100      -0.54511000
C        0.51579900      -0.93968700       0.51310600
C        2.02871900      -1.10007600       0.45473400
H        1.51514100       1.67698300       0.12078000
H        0.07195200       1.78808300       1.12482500
H        0.03966800       2.38088500      -0.53331600
H        0.37681300       0.06797700      -1.39901000
H        0.04166000      -1.87238700       0.19263600
H        0.20125000      -0.77118500       1.54741400
H        2.36644400      -1.26678100      -0.56637600
H        2.34279700      -1.95105700       1.05470600
H        2.53902200      -0.21809100       0.83576400
