15
Properties=species:S:1:pos:R:3 pbc="F F F"
N        0.01072200       0.68721800       2.14352300
C       -0.30315400       0.75077100       0.72406900
C        0.61882000       1.45632300      -0.24112200
C        0.50980700      -0.05215500      -0.24222300
C       -0.15194500      -0.75998800      -1.41758700
O       -0.75694900      -1.98282000      -1.01854600
H       -0.25242400       1.55165100       2.61207100
H        1.00408100       0.52813000       2.28882000
H       -1.37568200       0.82768400       0.52739300
H        1.53501600       1.89049200       0.14548300
H        0.18319000       1.99165500      -1.07954600
H        1.36745600      -0.58012500       0.18191700
H        0.59769600      -0.95406300      -2.21699800
H       -0.93847700      -0.12893100      -1.85925100
H       -0.18148900      -2.44416100      -0.39500500
