18
Properties=species:S:1:pos:R:3 pbc="F F F"
C        1.10006800      -0.93070900       2.00917200
C        1.16274000       0.49914500       1.57205900
C        0.64613700      -0.54880400       0.63287000
C       -0.83392100      -0.61604900       0.28085200
C       -1.24723000       0.16799100      -0.96378000
C       -0.47679200       1.33086100      -1.48600800
N       -0.47983100       0.05654500      -2.20790800
H        0.34469100      -1.20044200       2.74025700
H        2.03497500      -1.47268600       2.10893100
H        2.14055500       0.92797600       1.37645400
H        0.44905000       1.18955800       2.01001400
H        1.31974700      -0.83140900      -0.17885100
H       -1.42168300      -0.25640300       1.13383900
H       -1.12507200      -1.66660800       0.14097500
H       -2.33310700       0.17783000      -1.12598600
H        0.44950100       1.62060400      -0.98762200
H       -1.00197700       2.14801700      -1.98355000
H        0.39612200      -0.44686600      -2.05009400
