21
Properties=species:S:1:pos:R:3 pbc="F F F"
C        0.17391600       2.56909400       0.47936000
C       -0.65615600       1.30451300       0.28178800
C        0.01306500       0.07049300       0.87455000
C        0.98178300      -0.79206900       0.10253100
C       -0.37796000      -1.33180400       0.47730600
C       -1.45519700      -1.62012800      -0.54682100
C        1.38123300      -0.50396700      -1.32882500
H       -0.33470700       3.43618200       0.06254400
H        1.14277000       2.48139700      -0.00737000
H        0.35011400       2.76065500       1.53609100
H       -0.84822100       1.15983800      -0.78515900
H       -1.63720500       1.44276300       0.75357100
H        0.25995500       0.19075600       1.93275000
H        1.80665400      -1.19178300       0.69824300
H       -0.36922900      -2.05569500       1.29627400
H       -1.44035600      -0.90808900      -1.36781800
H       -2.44426500      -1.58035100      -0.08976000
H       -1.32982200      -2.61716700      -0.96915200
H        0.56276300      -0.08123300      -1.90560200
H        1.70600600      -1.41562300      -1.83074000
H        2.21143800       0.20155400      -1.36321300
