14
Properties=species:S:1:pos:R:3 pbc="F F F"
N       -1.32558300      -0.00003100       0.49359300
C       -0.67666400       1.20912900      -0.03802400
C        0.71024900       0.74395800      -0.44639000
C        0.71027300      -0.74392000      -0.44641000
C       -0.67662300      -1.20915100      -0.03806000
N        1.41639400       0.00001900       0.61043300
H       -2.33599200      -0.00004700       0.35540100
H       -0.65894100       2.01150800       0.72042100
H       -1.21324700       1.62458500      -0.91774100
H        1.31014300       1.33587300      -1.14547500
H        1.31018900      -1.33580600      -1.14549900
H       -0.65888200      -2.01155200       0.72036000
H       -1.21318900      -1.62460700      -0.91778800
H        2.42082600       0.00003700       0.41544100
