19
Properties=species:S:1:pos:R:3 pbc="F F F"
C       -2.55681500       0.67706000      -0.25201900
C       -1.06456000       0.62896700      -0.13134200
C       -0.28750500      -0.46350200       0.01169000
C        1.21050400      -0.35765000       0.12152500
C        1.99146500       0.67706100      -0.64318300
C        1.87477100       0.78661300       0.83891300
C       -0.81074400      -1.87450900       0.07655000
H       -2.85241100       1.14624900      -1.19277100
H       -2.98806200       1.28270900       0.54762600
H       -3.01681000      -0.30648800      -0.21085900
H       -0.57524600       1.60212100      -0.16522300
H        1.70937700      -1.32133100       0.23227300
H        1.43453900       1.38512300      -1.24884500
H        2.95028300       0.38319700      -1.05940800
H        1.23879500       1.56909500       1.24075400
H        2.75336800       0.56760300       1.43801400
H       -1.89243500      -1.92461700      -0.00506700
H       -0.52072400      -2.34863800       1.01589600
H       -0.38336400      -2.47925500      -0.72518800
