13
Properties=species:S:1:pos:R:3 pbc="F F F"
C       -1.45320400       0.04289700       1.44461900
C        0.06711700       0.03974500       1.30847800
C        0.53049200      -0.30082400      -0.09316900
C        1.32844800      -1.34446100      -0.37286200
C        0.07470300       0.57422300      -1.15146500
N       -0.29305400       1.28581500      -1.98216800
H       -1.74431700       0.31706800       2.45632100
H       -1.86643800      -0.93995000       1.22906000
H       -1.90341200       0.75472300       0.75654400
H        0.50600400      -0.67223200       2.01371700
H        0.45307800       1.03074000       1.57789600
H        1.67403200      -2.00420100       0.41396900
H        1.64709500      -1.55633000      -1.38594000
