17
Properties=species:S:1:pos:R:3 pbc="F F F"
N       -1.15002000      -1.46402200       0.36954400
C       -1.33074800      -0.19772400       1.07901000
C       -0.70351700       0.98924900       0.33532000
C        0.83236200       1.01971800       0.36520000
C        1.56574000       0.19524800      -0.66040300
C        1.05759600      -0.37269800      -1.75450100
H       -1.54594900      -2.23231100       0.90458700
H       -0.16260500      -1.64876600       0.21207800
H       -0.91586500      -0.23750400       2.11027100
H       -2.41029100      -0.01488900       1.19459800
H       -1.06790200       1.90892900       0.80685700
H       -1.06262000       1.01218300      -0.69704900
H        1.18462800       0.72826500       1.36375000
H        1.16654100       2.06053300       0.24256900
H        2.63883700       0.10832300      -0.47951300
H        0.00289700      -0.31896200      -1.99369000
H        1.69387100      -0.92040600      -2.43901400
