17
Properties=species:S:1:pos:R:3 pbc="F F F"
C        0.09342300       1.17404400       2.12963800
C       -0.31914100       1.05745600       0.66871900
C        0.11883700      -0.27998500       0.02804200
C       -0.41988200      -0.40012900      -1.39332200
C       -1.26701000      -1.34521200      -1.80018300
N        1.59519000      -0.39051000       0.04385200
H       -0.20322800       2.13754800       2.53986300
H        1.17108100       1.07636700       2.23560700
H       -0.37255200       0.39532400       2.73051500
H        0.11112900       1.88800900       0.09794800
H       -1.40619700       1.15403900       0.58290900
H       -0.28486700      -1.11214400       0.63166000
H       -0.05890100       0.33826500      -2.11106300
H       -1.64492000      -2.09738600      -1.11630700
H       -1.61146000      -1.39362200      -2.82655700
H        2.01211600       0.37538100      -0.48084800
H        1.88410600      -1.26525800      -0.38805000
