17
Properties=species:S:1:pos:R:3 pbc="F F F"
C       -1.04547800      -0.32905100      -1.90117000
C       -0.87534600       1.06711400      -1.40822200
N       -1.48974600       0.04852300      -0.56107700
C       -0.75081400      -0.45105900       0.61960900
C        0.77635700      -0.47367300       0.53143900
C        1.60108900      -0.50523700       1.77387500
N        1.50796800       0.71798400       0.97823100
H       -0.16137300      -0.96330100      -2.00072000
H       -1.84542000      -0.56027200      -2.60840700
H       -1.55069000       1.84929300      -1.76267700
H        0.12807200       1.41082900      -1.15279600
H       -1.11418600      -1.47178700       0.82741300
H       -1.04525200       0.16242800       1.48337900
H        1.20061000      -0.99240900      -0.33851400
H        2.55427300      -1.03852000       1.76405500
H        1.11437800      -0.46333400       2.74977500
H        2.35718200       0.85295700       0.42522900
