17
Properties=species:S:1:pos:R:3 pbc="F F F"
N       -0.90743600      -0.25655600      -1.63528000
C       -0.79627000      -0.44943100      -0.18886100
C        0.26267700      -1.45861500       0.34031400
C        0.82657600      -0.36845800       1.26255100
C       -0.11084300       0.68369700       0.62536200
C        0.58442900       1.78373900      -0.16829100
H       -1.31785700      -1.07734200      -2.07386200
H        0.00727400      -0.09503700      -2.04929100
H       -1.80225800      -0.67543800       0.20374400
H        0.97210900      -1.78882300      -0.42199900
H       -0.13145000      -2.34541100       0.84362400
H        1.89515300      -0.17236400       1.14484800
H        0.63215200      -0.54620800       2.32317400
H       -0.79051200       1.15028000       1.35438800
H        1.31303600       1.37276200      -0.86464900
H        1.11163400       2.46300400       0.50014000
H       -0.13664200       2.36487700      -0.73960500
