18
Properties=species:S:1:pos:R:3 pbc="F F F"
C        1.88384800      -0.09152700       1.44662800
N        1.29608700      -0.89525700       0.37739800
C       -0.17402600      -0.84297400       0.31196800
C       -0.70008600       0.49732600      -0.24314600
N       -2.17836500       0.48380900      -0.20652000
C       -0.15994400       0.78165500      -1.65892700
H        2.96399300      -0.25164800       1.46732900
H        1.48228500      -0.33909500       2.44587200
H        1.70248400       0.97258600       1.27362000
H        1.59187400      -1.86776900       0.48695100
H       -0.63315000      -1.02428000       1.30508000
H       -0.50694800      -1.66185800      -0.34169300
H       -0.36581200       1.31219800       0.42393800
H       -2.53917700      -0.25413200      -0.80748700
H       -2.54567400       1.37056700      -0.54343800
H       -0.48591700       0.01658700      -2.36163200
H        0.92715400       0.79589300      -1.65940700
H       -0.51392300       1.74420500      -2.02441800
