18
Properties=species:S:1:pos:R:3 pbc="F F F"
N       -1.22509000      -1.28093900      -1.82347400
C       -1.63556900       0.00342200      -1.25683500
C       -1.06496800       0.20371500       0.14807000
N        0.39709900       0.11193200       0.14991900
C        1.00577900       0.46000100       1.43785100
C        2.52453200       0.47422000       1.33879100
H       -1.70208600      -1.46024600      -2.70261900
H       -1.42340800      -2.04076400      -1.17843200
H       -2.74207700       0.10356000      -1.20885200
H       -1.28665700       0.81111500      -1.91997300
H       -1.47366200      -0.56079800       0.82974200
H       -1.41923600       1.18268300       0.54446200
H        0.78810300       0.69057500      -0.59627500
H        0.68699800      -0.27526100       2.19387300
H        0.64864900       1.44755500       1.80742000
H        2.90388400      -0.48792800       1.00178900
H        2.97337200       0.69462300       2.30494300
H        2.86340700       1.22979600       0.63155100
