14
Properties=species:S:1:pos:R:3 pbc="F F F"
C       -1.37394400       1.07115000       1.03259800
C        0.10711400       0.76276000       1.03658600
O        0.90236600       1.33233600      -0.00893700
C        0.78296600      -0.09589800       0.02802700
C        0.08046800      -0.74796700      -1.15831000
O       -0.28153200      -2.09170200      -0.85997600
H       -1.56083500       2.04819100       1.47655200
H       -1.92501800       0.33174000       1.61327700
H       -1.77889900       1.08088400       0.02394800
H        0.58615600       0.83211500       2.02886500
H        1.71523900      -0.60032800       0.34310300
H        0.74458500      -0.72850600      -2.04677000
H       -0.83808300      -0.20864800      -1.42356600
H        0.51056800      -2.62078900      -0.69750700
