17
Properties=species:S:1:pos:R:3 pbc="F F F"
C       -2.13654000       0.00972200      -1.66111800
C       -0.99416700       0.34700700      -1.45744300
C        0.39209600       0.76296600      -1.24121800
C        0.97936200       0.30771800       0.10658500
C        0.20140200       0.66853000       1.38771400
C        0.28241500      -0.79466800       1.83953000
C        0.86417600      -1.18484000       0.47531600
H       -3.14122400      -0.29186700      -1.82770400
H        0.44773600       1.85811000      -1.31220700
H        1.00901200       0.36859000      -2.06059300
H        2.02180600       0.65528700       0.15748900
H       -0.81895500       1.00423100       1.19179300
H        0.68278700       1.39879400       2.04408500
H       -0.67102700      -1.26227100       2.09685900
H        0.97339100      -0.95709200       2.67040400
H        0.15880100      -1.73080100      -0.15437900
H        1.80520900      -1.74159200       0.49805000
