16
Properties=species:S:1:pos:R:3 pbc="F F F"
C       -0.99603500       2.30963000       0.36512100
N       -0.35369100       1.11518000       0.91161200
C        0.25216700       0.25339200      -0.09969100
C       -0.60819800      -0.68339200      -0.93449300
C        0.33233400      -1.21112100       0.13904500
N        1.54191700      -1.93687500      -0.22323100
H       -1.41104200       2.90652000       1.18069200
H       -1.81365500       2.08126700      -0.34115400
H       -0.26141200       2.92018300      -0.16648100
H       -1.02234800       0.58219200       1.47168600
H        1.09228900       0.72531600      -0.61891800
H       -0.33548000      -0.83842100      -1.97324800
H       -1.67404400      -0.70827000      -0.73263900
H       -0.14280400      -1.59784000       1.04604500
H        2.04902300      -1.45329300      -0.95948200
H        1.32028700      -2.87684000      -0.54506500
