20
Properties=species:S:1:pos:R:3 pbc="F F F"
C       -1.72996200      -1.70391600      -0.13410300
C       -0.22260000      -1.51593500      -0.01272600
C        0.26681400      -0.08805400      -0.35709500
C       -0.17497800       0.93372000       0.71649200
C        0.08654100       2.38493200       0.33129700
C        1.79037000      -0.08742200      -0.54400600
H       -2.00634700      -2.73265500       0.08883000
H       -2.07254400      -1.47755100      -1.14210500
H       -2.27310700      -1.05916000       0.55387200
H        0.27445100      -2.22689700      -0.68137200
H        0.09861100      -1.77652400       1.00136000
H       -0.19173100       0.20555300      -1.31514600
H        0.33210700       0.70906000       1.66097600
H       -1.24578500       0.81002700       0.90712600
H        1.14975500       2.58440900       0.21749300
H       -0.29604900       3.05811300       1.09595100
H       -0.40124000       2.63495400      -0.60902300
H        2.29783700      -0.36138400       0.37919700
H        2.15120800       0.89329500      -0.84544200
H        2.08572100      -0.80118600      -1.31088100
