19
Properties=species:S:1:pos:R:3 pbc="F F F"
C        1.68097000      -0.14364100      -0.03248900
C        0.76462500      -1.24484200       0.51392700
C       -0.48437800      -1.51046500      -0.33637900
C       -1.59958900      -0.51584300      -0.12728800
C       -1.48206100       0.78102300       0.18587900
C       -0.20591000       1.56879900       0.35121000
C        0.94461100       1.09827300      -0.54802000
H        2.29389800      -0.54741900      -0.84670500
H        2.38231500       0.14823000       0.75789500
H        0.45139900      -0.98762500       1.53051900
H        1.34431100      -2.17126900       0.59989400
H       -0.87075000      -2.50833500      -0.09548800
H       -0.21212900      -1.55272900      -1.40064700
H       -2.60684600      -0.92067600      -0.23422300
H       -2.40041200       1.35216900       0.32829300
H        0.11118500       1.55485300       1.40373200
H       -0.42409800       2.62005700       0.12723700
H        1.66929800       1.91298700      -0.66128200
H        0.55222100       0.89993200      -1.55026100
