17
Properties=species:S:1:pos:R:3 pbc="F F F"
C       -1.86821400       0.13479300       0.70538400
C       -0.36418600       0.32164800       0.44318300
C        0.19837200      -0.81407500      -0.42626800
C        1.64012500      -1.20136100      -0.31663000
C        0.57876800      -2.11517700       0.21113900
C       -0.09879400       1.63656700      -0.17073900
C        0.11916400       2.71544000      -0.66883300
H       -2.05124100      -0.81734200       1.19939100
H       -2.43003700       0.14470400      -0.22590400
H       -2.25401400       0.92907400       1.34041400
H        0.16068000       0.29975100       1.41457800
H       -0.24418400      -0.87755000      -1.42106800
H        2.25601700      -0.67544200       0.40582700
H        2.16167900      -1.49687100      -1.22119500
H        0.48092400      -2.20470700       1.28866000
H        0.37773000      -3.03131200      -0.33478900
H        0.31104800       3.66268300      -1.10932900
