19
Properties=species:S:1:pos:R:3 pbc="F F F"
C       -0.89971300       1.39690900       1.54541100
C       -1.14006300       1.23925500       0.05902500
C       -0.21044800       1.86981700      -0.93898100
C       -0.27497200       0.37401700      -0.81773800
C        0.91884800      -0.41235500      -0.28183000
C        0.52643000      -1.75745800       0.26906500
C        1.08695500      -2.91235200      -0.09152700
H       -1.36724800       2.30900900       1.91573100
H        0.16156100       1.45183600       1.77642800
H       -1.32312200       0.56201300       2.10380100
H       -2.19717800       1.25752000      -0.21414100
H        0.67376900       2.36858200      -0.55501000
H       -0.63942900       2.33319700      -1.82239300
H       -0.80369500      -0.13567700      -1.62551900
H        1.66258000      -0.54232700      -1.07683800
H        1.41000600       0.16946400       0.50897500
H       -0.26810300      -1.75850800       1.01583600
H        1.87607900      -2.95023300      -0.83369900
H        0.77256000      -3.85186500       0.34628100
