8
Properties=species:S:1:pos:R:3 pbc="F F F"
O       -1.85557200       0.04428400       0.14562200
C       -0.63728600       0.02393500       0.07867500
C        0.08698800      -0.34133800      -1.13965700
C        0.76767900      -0.62970200      -2.10011200
C        0.21248400       0.39590600       1.32091100
O        1.41628000       0.39651500       1.32591000
H        1.32419000      -0.89068400      -2.96949600
H       -0.38903800       0.67149100       2.23834000
