17
Properties=species:S:1:pos:R:3 pbc="F F F"
C       -2.54437200      -0.37263400      -0.10877700
N       -1.10462300      -0.36431200      -0.34139600
C       -0.47668600       0.93751800      -0.05978800
C        0.98629000       0.96236300      -0.44473000
C        1.92920000       0.10542600      -0.03080800
C        1.72597500      -1.05331300       0.89234300
H       -2.95211800      -1.35289100      -0.36629400
H       -3.08637200       0.38862700      -0.70019300
H       -2.75716200      -0.17887800       0.94679700
H       -0.90223900      -0.64299700      -1.30367200
H       -0.59288200       1.15700300       1.01600400
H       -1.00195500       1.76082900      -0.58988600
H        1.29088900       1.77081700      -1.10947600
H        2.95041400       0.25056100      -0.38582500
H        0.69849400      -1.11871300       1.23730300
H        2.38211400      -0.96944600       1.76055700
H        1.98073500      -1.99088100       0.39502200
