12
Properties=species:S:1:pos:R:3 pbc="F F F"
C       -1.44841000       0.06043500       0.00298100
C        0.05375200       0.09997300       0.00492100
C        0.72974700       1.25640900       0.06190900
C        0.76737600      -1.22910700      -0.06056500
H       -1.87540700       1.05880600       0.05217400
H       -1.82020300      -0.51530200       0.85156500
H       -1.82022100      -0.42910800      -0.89807400
H        0.21196900       2.20579500       0.10869000
H        1.81216300       1.27462000       0.06280200
H        0.06345600      -2.05630200      -0.10130400
H        1.40673700      -1.37549700       0.80948200
H        1.40671100      -1.28927500      -0.94080700
