18
Properties=species:S:1:pos:R:3 pbc="F F F"
C       -1.24956500      -1.90208800      -0.04882900
C       -1.51982600      -0.42094000       0.18532400
C       -0.89189300       0.49687600      -0.87272800
C        0.64386400       0.54453300      -0.82984300
C        1.18194800       1.10406200       0.45871600
C        2.14923300       0.53961000       1.18249500
H       -1.73625700      -2.50645000       0.71380600
H       -0.18445100      -2.11995300      -0.01690600
H       -1.62607200      -2.22030900      -1.01918200
H       -1.15228400      -0.13505200       1.17587500
H       -2.60256200      -0.25322500       0.19636000
H       -1.28131100       1.51201800      -0.73509300
H       -1.21017400       0.17570800      -1.87052800
H        0.98939900       1.17885700      -1.65846300
H        1.06114900      -0.45090100      -1.00873900
H        0.74347800       2.04545200       0.79327100
H        2.60673400      -0.39645300       0.88352400
H        2.50978400       0.99799100       2.09526100
