17
Properties=species:S:1:pos:R:3 pbc="F F F"
C       -2.25190200       0.09203000      -0.93716600
C       -1.46880000       0.38693400       0.10088600
C       -0.94397600      -0.62729100       1.07999800
C        0.53676100      -0.43762600       1.43987100
C        1.50172800      -0.68661800       0.26845900
C        1.47666900       0.35948900      -0.75413200
C        1.51628500       1.21916600      -1.60231700
H       -2.62260100       0.86585700      -1.59790000
H       -2.53535000      -0.93007400      -1.16107100
H       -1.20140200       1.42568900       0.29431100
H       -1.10902300      -1.63948400       0.69618500
H       -1.52910500      -0.55116100       2.00786600
H        0.79239200      -1.13233900       2.24793200
H        0.69396700       0.57072000       1.83533600
H        1.27412100      -1.65242500      -0.20137900
H        2.52641200      -0.76490500       0.65677000
H        1.51000100       1.97162500      -2.35164900
