12
Properties=species:S:1:pos:R:3 pbc="F F F"
O       -0.84579300      -1.24236700      -1.11224300
C       -1.74338200      -0.45967000      -0.36174900
C       -1.08585000       0.57839400       0.49719500
C        0.21667500       0.84231800       0.71296400
C        1.40807800       0.15437600       0.14548700
O        2.53632900       0.50331400       0.43441900
H       -1.33363200      -1.87825400      -1.65111900
H       -2.36970900      -1.11277500       0.28973000
H       -2.46694800       0.04933000      -1.03949600
H       -1.81232400       1.20317400       1.02301500
H        0.45113400       1.66143500       1.39372900
H        1.23406000      -0.70299900      -0.55664500
