19
Properties=species:S:1:pos:R:3 pbc="F F F"
C       -1.65033000      -0.75827000       2.56801300
C       -1.10708800      -1.32361900       1.48948700
C       -1.30754000      -0.83885200       0.08023700
C        0.01485000      -0.64132100      -0.68563800
C        0.87707200       0.44055400      -0.09116400
C        1.54683100       1.39145500      -0.75671700
C        1.58472000       1.60199100      -2.23805100
H       -1.48327300      -1.16199000       3.55917000
H       -2.27594000       0.12338000       2.48964300
H       -0.48029300      -2.20874600       1.60733700
H       -1.88351800       0.09106600       0.08190700
H       -1.91039500      -1.57939800      -0.46385700
H       -0.20657100      -0.42815800      -1.73591300
H        0.56959800      -1.59081900      -0.67463500
H        0.95848400       0.42300100       0.99547600
H        2.14101900       2.09754400      -0.17597900
H        0.89828300       0.94735000      -2.76881300
H        2.58899800       1.42104600      -2.62619600
H        1.33251200       2.63409200      -2.48514500
