18
Properties=species:S:1:pos:R:3 pbc="F F F"
C       -1.13858600       1.71416000      -0.09088500
C       -1.32389600       0.71768100       1.04591900
C       -0.76683600      -0.68074500       0.74006300
C        0.76941100      -0.75294800       0.67676100
O        1.33701300      -0.12182600      -0.47426000
C        1.18733800      -0.84248000      -1.67950000
H       -1.53852000       2.68855300       0.18385600
H       -1.65654700       1.37975000      -0.98792800
H       -0.08654600       1.83224600      -0.33605200
H       -2.39179100       0.62811400       1.27704800
H       -0.84647000       1.10483700       1.95336300
H       -1.19537600      -1.05232400      -0.19640400
H       -1.10228000      -1.37021800       1.52402600
H        1.09015700      -1.81613600       0.70672700
H        1.20727200      -0.25304100       1.55601300
H        1.76152100      -0.32671700      -2.45616300
H        0.13156400      -0.89784700      -2.00298100
H        1.56632600      -1.87662000      -1.58157600
