21
Properties=species:S:1:pos:R:3 pbc="F F F"
C       -1.66776800      -1.72806200       0.95004400
C       -1.72854000      -0.51043400       0.03559200
C       -0.73834200      -0.56302200      -1.13569400
C        0.74410800      -0.47802200      -0.72784300
C        1.11553500       0.83912000      -0.06740500
C        1.20919400       1.97489200      -0.77333900
C        1.38500600       0.80551500       1.41134100
H       -2.41293100      -1.65349100       1.73934400
H       -0.69192100      -1.82238400       1.42166500
H       -1.85816600      -2.64422400       0.39461500
H       -1.55335700       0.39717600       0.62121700
H       -2.74216000      -0.42215400      -0.37072900
H       -0.96135100       0.26105500      -1.82190600
H       -0.89423400      -1.48905700      -1.70083500
H        1.35090900      -0.61443000      -1.63021100
H        0.98995900      -1.30845100      -0.05936200
H        1.02007600       1.99000200      -1.83963800
H        1.47386400       2.91127400      -0.29841500
H        2.21861400       0.13814200       1.63543800
H        0.52016400       0.42354400       1.95516800
H        1.62537200       1.79306600       1.79747400
