16
Properties=species:S:1:pos:R:3 pbc="F F F"
C        0.15874300       1.31939100      -1.76790600
N       -0.41039200       0.64039400      -0.62231100
C        0.34092100      -0.16038700       0.24149300
N       -0.19395000      -0.94618400       1.13697100
C       -1.64725000      -1.02287400       1.23505100
C        1.84116500      -0.06112700       0.15095400
H       -0.60027800       1.96242800      -2.21732200
H        0.51655700       0.62648400      -2.54879600
H        1.00386200       1.94947800      -1.47350300
H       -1.39513100       0.40149500      -0.70071000
H       -1.92893100      -1.72611600       2.02419800
H       -2.11278200      -1.37138700       0.29861700
H       -2.09889300      -0.04921800       1.47920500
H        2.18117000       0.95972100       0.32783100
H        2.19797800      -0.35336400      -0.83743600
H        2.30537000      -0.70900200       0.88774000
