13
Properties=species:S:1:pos:R:3 pbc="F F F"
C       -1.38761500       0.06671300       0.38923500
C        0.15561200       0.05514500       0.34242700
N        0.68491300      -1.26164500      -0.06653200
C        0.69595900       1.14306600      -0.59123300
H       -1.75859600      -0.69211200       1.07560200
H       -1.81045000      -0.13635500      -0.59279700
H       -1.76087800       1.03299300       0.72155600
H        0.52936800       0.25608900       1.36355600
H        0.38673800      -1.48149500      -1.01405100
H        0.33595100      -1.98880300       0.55311000
H        0.35993500       0.98250700      -1.61402500
H        1.78324800       1.14149200      -0.59270400
H        0.35655700       2.12765500      -0.27709600
