16
Properties=species:S:1:pos:R:3 pbc="F F F"
C       -1.67963500       0.18527000      -1.26581900
C       -0.20642800       0.12774800      -0.84618300
C        0.18737900      -1.19108600      -0.12445200
C        0.97962800      -0.78305700       1.13368600
C        0.83660100       0.71178500       1.19898800
C        0.19003300       1.20600400       0.13969400
H       -1.91315100      -0.61207000      -1.96929800
H       -1.90853000       1.13417500      -1.74768300
H       -2.33934800       0.07772600      -0.40731700
H        0.40211800       0.24354900      -1.76193300
H        0.77373600      -1.84412800      -0.77663000
H       -0.70685900      -1.75585500       0.15425500
H        2.03638600      -1.07382800       1.06220300
H        0.59630600      -1.26996900       2.03925100
H        1.23433000       1.30199200       2.01975900
H       -0.02045600       2.25842700      -0.02808900
