17
Properties=species:S:1:pos:R:3 pbc="F F F"
C       -1.77365800      -0.47391900       0.80449700
N       -0.31238100      -0.53712600       0.80672100
C        0.33686800      -1.28741800      -0.27449500
C        0.45038900       0.20964500      -0.21256000
C       -0.27497100       1.05770400      -1.24979600
C        1.75086600       0.82451300       0.29463800
H       -2.17281200      -1.26872800       1.44364500
H       -2.22496000      -0.59299000      -0.19299100
H       -2.10404700       0.48300200       1.21884300
H       -0.31474600      -1.72771200      -1.03386400
H        1.17647000      -1.91637700       0.02993200
H       -1.12159600       0.53361000      -1.68563100
H        0.40276700       1.32542200      -2.05986500
H       -0.64004300       1.98605400      -0.81071600
H        2.21691600       0.18677600       1.04154800
H        1.57157900       1.79878100       0.74869700
H        2.46017800       0.96889100      -0.52035000
