17
Properties=species:S:1:pos:R:3 pbc="F F F"
C       -0.19734900      -2.34901400       0.67013000
C        0.14044400      -0.97462900       1.23824800
C        0.52652000       0.03034000       0.15915500
C        0.44631000       1.51047100       0.45121200
C       -0.50941100       0.86151600      -0.52442800
N       -0.39775100       1.11179400      -1.95471100
H       -0.45384200      -3.04556400       1.46587700
H        0.64673400      -2.76276700       0.12183100
H       -1.04205300      -2.29316500      -0.01312100
H        0.96331900      -1.07354600       1.95690100
H       -0.71577300      -0.59103000       1.80320800
H        1.37308900      -0.27668800      -0.45769000
H        1.23408500       2.14353100       0.05589500
H        0.06669800       1.81346500       1.42206300
H       -1.54467600       0.74589800      -0.18915400
H        0.57042900       1.04897200      -2.25790600
H       -0.75283200       2.03623400      -2.19083000
