16
Properties=species:S:1:pos:R:3 pbc="F F F"
N       -1.07963400      -1.82354500      -0.09922400
C       -0.47834300      -0.82506100       0.79190000
C        0.26335700       0.26197900      -0.00134000
N        1.36152200      -0.21136800      -0.84416000
C       -0.50455500       1.44745000      -0.50933200
C        0.44409000       1.60999100       0.64343400
H       -1.53564700      -2.55560200       0.43906300
H       -0.36926900      -2.25099300      -0.68807500
H        0.22609800      -1.29677100       1.51274500
H       -1.27484700      -0.36619600       1.39347200
H        1.00936800      -0.77044400      -1.61818900
H        2.01449800      -0.77812900      -0.30714000
H       -1.56801500       1.50094000      -0.29904900
H       -0.20766100       1.87521800      -1.46065500
H        0.01673600       1.77502700       1.62820300
H        1.36823400       2.14519100       0.45534500
