19
Properties=species:S:1:pos:R:3 pbc="F F F"
C       -0.96558800      -2.71692600      -0.48141700
C       -0.17733600      -2.19452300       0.67862100
C       -0.01048700      -0.91197900       1.02912500
C       -0.59105700       0.29738700       0.34111100
C        0.38812300       1.46608700       0.28983100
C        1.32546600       1.62548600      -0.86728300
C        0.18238400       2.57643800      -0.69456000
H       -0.36409500      -3.40815900      -1.07300300
H       -1.31639700      -1.92341600      -1.13634700
H       -1.83735500      -3.27515500      -0.13397000
H        0.29850000      -2.95830000       1.29433200
H        0.59341700      -0.70060300       1.91231200
H       -1.49261600       0.61642100       0.88778200
H       -0.92320300       0.04829800      -0.67080500
H        0.78257200       1.76092000       1.26418700
H        1.26317100       0.90686600      -1.67771800
H        2.32710400       1.99425900      -0.67031700
H       -0.64765100       2.49657300      -1.38931200
H        0.40751800       3.59047200      -0.37970500
