20
Properties=species:S:1:pos:R:3 pbc="F F F"
C       -0.04074600      -1.94561800       0.61959400
C       -0.62511800      -1.20367400      -0.57711600
C       -0.07727700       0.21911200      -0.86398400
C       -0.67503900       1.32936200       0.03821900
C       -0.17864400       1.39318500       1.47756300
C        1.45393700       0.26288800      -0.91270800
H       -0.45607400      -2.95057300       0.67163300
H       -0.26681700      -1.44831100       1.55916500
H        1.03990200      -2.03956100       0.54064900
H       -1.71328200      -1.14197400      -0.46500100
H       -0.44861800      -1.81206000      -1.47172900
H       -0.43234900       0.46051700      -1.88136900
H       -1.76590400       1.22590900       0.04003100
H       -0.46470400       2.29315100      -0.43979100
H       -0.46197300       0.50963300       2.04345600
H       -0.60760700       2.25730700       1.98187600
H        0.90383800       1.48850800       1.52181200
H        1.89638000       0.04499900       0.05636000
H        1.79916600       1.24768900      -1.22199300
H        1.83536000      -0.46676900      -1.62451400
