13
Properties=species:S:1:pos:R:3 pbc="F F F"
O       -2.52711400      -0.91964900       0.37913500
N       -1.15310100      -1.03130200       0.51138500
C       -0.51199500      -0.03056900      -0.00899000
C        0.97245600       0.01198800       0.04226800
C        1.74421400       0.61446200      -1.10248400
C        1.67913600       1.33291800       0.20162800
H       -2.91554500      -1.71233300       0.79561500
H       -1.04173200       0.80266900      -0.49700500
H        1.43715900      -0.84179000       0.53635300
H        1.17988900       1.02381600      -1.93423300
H        2.68231400       0.14533200      -1.38085700
H        1.07102700       2.23036800       0.25563600
H        2.57263900       1.35545200       0.81718400
