13
Properties=species:S:1:pos:R:3 pbc="F F F"
C       -2.32704800       1.30569500      -0.67632400
O       -0.91616600       1.20157900      -0.62341900
C       -0.45889700       0.00860500      -0.00431000
C        1.07228800       0.02657000      -0.01405500
C        1.64601400      -1.16666700       0.60452400
N        2.09413200      -2.10733300       1.09251800
H       -2.57801000       2.24991600      -1.16728100
H       -2.76735600       1.29584700       0.33655000
H       -2.76875300       0.47101200      -1.24910700
H       -0.84388000      -0.88054400      -0.54692500
H       -0.84345000      -0.05931800       1.03526200
H        1.43907000       0.91292100       0.51658600
H        1.43864500       0.10364800      -1.04436800
