21
Properties=species:S:1:pos:R:3 pbc="F F F"
C       -1.22218500      -0.46818700       2.07659100
C       -1.58083800       0.16523400       0.73884000
C       -0.89531900      -0.50202000      -0.46935100
C        0.61891200      -0.37210100      -0.47292800
C        1.26689500       0.74913300      -0.84119600
C        0.63783000       2.03297700      -1.28907900
C        1.39101000      -1.59667400      -0.05480200
H       -1.76930000       0.00995900       2.88682300
H       -0.15981800      -0.36759700       2.28577500
H       -1.46731900      -1.52859000       2.08765000
H       -1.32287100       1.22869600       0.75965500
H       -2.66622500       0.11287500       0.59508100
H       -1.30675600      -0.05790600      -1.38326400
H       -1.16545700      -1.56277700      -0.49132700
H        2.35641000       0.74752600      -0.81242200
H       -0.42425200       1.92276700      -1.49382800
H        1.12244000       2.40311000      -2.19343700
H        0.75237400       2.81063700      -0.53031700
H        1.18127900      -2.43415400      -0.72296200
H        1.10784100      -1.91779100       0.94863000
H        2.46382600      -1.41691900      -0.06450800
