17
Properties=species:S:1:pos:R:3 pbc="F F F"
C       -2.30674200       0.12350400       0.24757600
C       -0.82161500       0.36587500       0.30916900
C       -0.24460800       0.83623600       1.42402300
C       -0.07381900       0.06712100      -0.97583600
C        1.44938000      -0.04502600      -0.86666700
N        1.84101900      -1.22904800      -0.09993800
H       -2.79671200       0.40341300       1.17658500
H       -2.51913900      -0.92831600       0.05160800
H       -2.75902900       0.69404700      -0.56472300
H       -0.83587100       1.05050600       2.30567200
H        0.81919300       1.02650600       1.48265400
H       -0.32190400       0.85135400      -1.70482500
H       -0.47173400      -0.86132000      -1.40152600
H        1.86725700       0.88956100      -0.43687800
H        1.87184400      -0.12631300      -1.87999700
H        1.39429300      -1.22373300       0.81387200
H        2.84909000      -1.25862300       0.02753800
