16
Properties=species:S:1:pos:R:3 pbc="F F F"
O       -2.54850900       0.96844900       0.26352500
C       -1.13586600       1.07104700       0.25715800
C       -0.53763100      -0.18154800      -0.38093500
C        0.98171900      -0.12959300      -0.44906400
C        1.81188600      -0.58154600       0.71449600
C        1.77997800      -1.39411000      -0.54199200
H       -2.93338600       1.75434600       0.67137300
H       -0.75904600       1.19820000       1.29492400
H       -0.82257700       1.98014800      -0.30196300
H       -0.95172900      -0.29752300      -1.38901000
H       -0.85486600      -1.06191600       0.18572500
H        1.37714800       0.72161600      -1.00763400
H        1.29856300      -0.97983700       1.58358600
H        2.72085800      -0.03376900       0.94199200
H        1.24590800      -2.33837000      -0.51742900
H        2.66667800      -1.39599400      -1.16775000
