16
Properties=species:S:1:pos:R:3 pbc="F F F"
C       -2.60960500       0.46735100       0.60057200
C       -1.65096100      -0.29402500       0.07280800
C       -0.76651900       0.12567400      -1.06801600
C        0.71394200       0.05753500      -0.78448600
C        1.26579600      -0.16430800       0.41473400
C        2.74076000      -0.21282000       0.65987400
H       -3.23270300       0.10728000       1.41009700
H       -2.79606800       1.47275200       0.24078800
H       -1.49140800      -1.30031500       0.46135000
H       -1.02738400       1.14339300      -1.38847400
H       -0.98082900      -0.51750900      -1.93608200
H        1.36272800       0.22296100      -1.64571300
H        0.62551500      -0.32203000       1.28187700
H        3.30409600      -0.02974100      -0.25240800
H        3.03851000      -1.18554600       1.05558000
H        3.03705900       0.53230500       1.40006200
