14
Properties=species:S:1:pos:R:3 pbc="F F F"
C       -1.27038600      -0.34291900      -2.15836200
C       -1.62129100      -0.47005300      -0.87850500
C       -0.72895700      -0.25940800       0.31402800
N        0.67827400      -0.14629200      -0.03280200
C        1.63206500       0.35181500       0.83865100
N        1.42024800       0.94056100       1.97181100
H       -1.99022700      -0.50744800      -2.95015400
H       -0.26672200      -0.06097800      -2.45459000
H       -2.64902400      -0.73989600      -0.63618100
H       -0.90261500      -1.08526400       1.03702300
H       -1.04436400       0.65736900       0.84051600
H        1.00165500      -0.73911500      -0.79093600
H        2.66384300       0.23935900       0.46662800
H        0.42921200       0.99948000       2.21975900
