14
Properties=species:S:1:pos:R:3 pbc="F F F"
C       -2.70209700       0.10074800       0.51734000
N       -1.25287800       0.02291200       0.58588800
N       -0.55592700       0.82311400      -0.27140500
C        0.70369500       0.56233600      -0.53829300
C        1.50732500      -0.56389500      -0.06608100
C        2.80457100      -0.72581600      -0.38110300
H       -3.13872900      -0.32569800       1.42484600
H       -3.12229800      -0.44718700      -0.34346700
H       -3.01361400       1.14292300       0.43644700
H       -0.87833200      -0.92052100       0.73814100
H        1.20580300       1.27839400      -1.19867600
H        1.03347800      -1.30776500       0.57528500
H        3.32246700      -0.01033100      -1.00954700
H        3.37189300      -1.57223900      -0.01559400
