17
Properties=species:S:1:pos:R:3 pbc="F F F"
C        0.75992300      -1.81064000      -0.43630000
C        0.32833100      -0.44488500       0.12130600
C       -1.18290900      -0.26841400       0.00268000
C       -2.01695400      -0.20466300       1.04008400
N        1.07083400       0.62651300      -0.59086500
C        0.84396600       1.96676700      -0.05426500
H        1.83510900      -1.94291200      -0.33591100
H        0.50929100      -1.89717600      -1.49236300
H        0.26494800      -2.62105900       0.09383100
H        0.60693400      -0.39374200       1.18899100
H       -1.58231700      -0.19152100      -1.00989900
H       -1.65657000      -0.27674100       2.06071500
H       -3.08487600      -0.08130500       0.90205400
H        0.83187000       0.60517800      -1.58546200
H        1.16795000       2.01160300       0.98910600
H       -0.21309100       2.28253400      -0.09056800
H        1.43077500       2.69055300      -0.62546200
