17
Properties=species:S:1:pos:R:3 pbc="F F F"
C       -1.02936600      -2.49376600      -0.22258200
N       -1.30030800      -1.28668200       0.55264400
C       -0.75858500      -0.04546400      -0.02251600
C        0.78126600       0.06586200       0.03957000
C        1.31153000       1.38440800      -0.54188700
O        0.96848900       2.50065200       0.26342000
H       -1.51832600      -3.34781400       0.25272400
H        0.04542300      -2.73242500      -0.31496700
H       -1.43241000      -2.38741600      -1.23305600
H       -0.96608200      -1.40311400       1.51187100
H       -1.20644400       0.80558800       0.51750300
H       -1.09416200       0.03354100      -1.06591900
H        1.22772800      -0.76942400      -0.50985700
H        1.11293900      -0.03375800       1.07826200
H        0.92451100       1.52659800      -1.57474000
H        2.40991000       1.35798400      -0.60938700
H        0.02208600       2.48555700       0.45618900
