18
Properties=species:S:1:pos:R:3 pbc="F F F"
C        0.27856600       1.13927500      -1.65683700
C       -0.21170100       1.27707600      -0.22136800
C        0.19100000       0.09191200       0.69376200
O       -0.23980200      -1.17138700       0.15305600
C       -1.63341000      -1.39489500       0.19667300
C        1.70003000       0.00400200       0.92202200
H       -0.08552800       1.96142000      -2.27022200
H       -0.07257200       0.20730900      -2.09292400
H        1.36547800       1.14157700      -1.70508900
H       -1.30281700       1.37440900      -0.22051800
H        0.17591700       2.20352300       0.21636400
H       -0.31347700       0.24083000       1.68015300
H       -1.82049800      -2.42842400      -0.11297700
H       -2.18583900      -0.72125300      -0.48431200
H       -2.03520500      -1.24958200       1.21666200
H        2.22426300      -0.20606700      -0.00716900
H        1.93489700      -0.79401500       1.62300700
H        2.08689200       0.93714600       1.32706600
