12
Properties=species:S:1:pos:R:3 pbc="F F F"
C       -2.53169300       1.18223300       0.80251200
C       -1.38413700       0.52487800       1.03174600
C       -0.49439600       0.05740200      -0.02662600
N        0.62427900      -0.54317500       0.26685300
N        1.41584100      -1.06179300      -0.69379900
C        2.40012900      -0.42051100      -1.22037600
H       -3.16129200       1.51673900       1.61691600
H       -2.86310100       1.39812800      -0.20701000
H       -1.07412500       0.32125400       2.05621400
H       -0.79140700       0.24321100      -1.07419300
H        3.04141200      -0.94008700      -1.93561000
H        2.62825700       0.63151800      -0.99122700
