14
Properties=species:S:1:pos:R:3 pbc="F F F"
C       -2.34564400       0.12691600       1.00221200
O       -0.97112400       0.33184100       0.72618400
C       -0.48408200      -0.46637000      -0.34465200
C        1.00640000      -0.18808200      -0.57774200
O        1.60901800      -0.78215800      -1.45412700
C        1.68784600       0.84065100       0.31299400
H       -2.62464900       0.77855500       1.83451800
H       -2.54474100      -0.92248400       1.28150800
H       -2.97000500       0.37217400       0.12533800
H       -1.05458500      -0.25723400      -1.27329700
H       -0.63497200      -1.54340100      -0.12405400
H        1.19604900       1.80697700       0.21341600
H        2.73700300       0.94382100       0.05144300
H        1.60563000       0.54544200       1.35780000
