14
Properties=species:S:1:pos:R:3 pbc="F F F"
C       -1.99148700      -1.14025300       0.87290800
C       -0.47573200      -1.04114900       0.80344800
C        0.01302700       0.11599300      -0.07934300
O       -0.75629100       0.88184500      -0.63503500
C        1.50359600       0.25811700      -0.22380200
C        2.05041100       1.22586400      -0.96581000
H       -2.29857300      -1.96459100       1.51297000
H       -2.41074400      -1.30020400      -0.11706700
H       -2.41732000      -0.22181000       1.26838700
H       -0.04587700      -1.97502700       0.42196100
H       -0.05356200      -0.91240600       1.80744500
H        2.13852100      -0.45857100       0.29754900
H        1.41435700       1.93699500      -1.48325000
H        3.12463400       1.32942800      -1.07212200
