16
Properties=species:S:1:pos:R:3 pbc="F F F"
C       -2.21507500      -0.14461000      -0.41566400
C       -0.68014700      -0.05469700      -0.45816200
C       -0.11648800       0.50059300       0.86853000
C        1.36374100       0.77869800       0.88918200
C        2.23642200       0.47929400      -0.07252800
O       -0.12564800      -1.34068700      -0.75187000
H       -2.66146400       0.83802600      -0.27597000
H       -2.55047600      -0.78306300       0.40066000
H       -2.59779400      -0.56186800      -1.34373800
H       -0.38134500       0.60775000      -1.29114600
H       -0.35604500      -0.19635700       1.68510100
H       -0.64855600       1.42762900       1.12060400
H        1.72071700       1.27101300       1.79552900
H        1.93190800      -0.02039100      -0.98323600
H        3.28660100       0.72073500       0.04131300
H       -0.26908700      -1.93365000      -0.00231000
