17
Properties=species:S:1:pos:R:3 pbc="F F F"
C       -1.47946400      -2.45268500       1.14097600
C       -0.11278000      -1.84798000       1.06225400
C        0.20914300      -0.62643600       0.61536200
C       -0.73624100       0.42376700       0.09655100
C       -0.24543600       1.06948300      -1.21433600
C        1.02069800       1.78759700      -1.06616400
C        2.05995900       2.39365200      -0.95473400
H       -1.50207500      -3.41610400       0.62964500
H       -2.24299400      -1.81620800       0.70125000
H       -1.75572000      -2.64041500       2.18026900
H        0.69479000      -2.48767500       1.41901700
H        1.25868700      -0.33450700       0.63003400
H       -0.85158900       1.21240500       0.85218900
H       -1.73395200       0.00599600      -0.06902700
H       -1.00735600       1.77047300      -1.58109300
H       -0.13146200       0.30089800      -1.98929500
H        2.97639700       2.92074900      -0.85245000
