9
Properties=species:S:1:pos:R:3 pbc="F F F"
C       -2.41649400      -0.23134800      -0.12600100
C       -1.20651600      -0.27311600      -0.14877800
C        0.23412400      -0.31682300      -0.17253400
C        0.92169900      -1.33641200      -0.72742300
C        0.92200000       0.80333900       0.43722100
N        1.47727000       1.69077000       0.92056800
H       -3.47905800      -0.19579400      -0.10662700
H        0.40495500      -2.17187800      -1.18212400
H        2.00433500      -1.34155800      -0.73013300
