14
Properties=species:S:1:pos:R:3 pbc="F F F"
C       -2.47123400       0.92173000      -0.18222000
O       -1.05943300       0.82642800      -0.20961400
C       -0.58632400      -0.42727100      -0.68654700
C        0.94338900      -0.42422200      -0.66685500
C        1.50682000      -0.16724000       0.73070700
O        2.36387600      -0.84464000       1.23966800
H       -2.73768700       1.91372200       0.19286800
H       -2.91194300       0.15463800       0.47927500
H       -2.90125600       0.78940100      -1.19105400
H       -0.95922400      -0.60889000      -1.71803300
H       -0.98698100      -1.25049300      -0.05693000
H        1.30695900       0.37255200      -1.32714400
H        1.33101800      -1.36878100      -1.05732200
H        1.06766300       0.72556500       1.26739500
