13
Properties=species:S:1:pos:R:3 pbc="F F F"
C        0.21003300      -2.06344200      -0.67714800
C        0.42453800      -0.60227000      -0.28970000
O        1.52984800      -0.08502400      -0.31191100
C       -0.79250100       0.19645700       0.11331800
C       -0.66165300       1.16491800       1.25542600
N       -0.71078800       1.65371100      -0.10425000
H        1.15571500      -2.55104800      -0.89398200
H       -0.42733000      -2.12966200      -1.55838100
H       -0.29090700      -2.60417500       0.12502600
H       -1.77573500      -0.24455000      -0.08013700
H        0.29565000       1.20954600       1.77828800
H       -1.54091100       1.37040200       1.86920300
H        0.23775200       1.87972100      -0.42635100
