19
Properties=species:S:1:pos:R:3 pbc="F F F"
C       -2.29313300       1.11558200       0.97637100
C       -0.79195400       0.93054900       0.92076800
C        0.03725900       1.75144100      -0.02523400
C       -0.14500900       0.27991200      -0.27203700
C        1.01835300      -0.66784600      -0.08466300
C        1.64204300      -1.33994300      -1.27148800
C        0.83349900      -2.14077500      -0.29897200
H       -2.56333600       1.94737600       1.62688800
H       -2.78514600       0.22338900       1.36335800
H       -2.69917600       1.31920000      -0.01207500
H       -0.33021400       0.71890300       1.88678300
H        1.00815800       2.09414100       0.31889200
H       -0.47736700       2.44426200      -0.68340100
H       -0.81151500       0.01744400      -1.09501200
H        1.70200100      -0.38487500       0.71764400
H        2.71791800      -1.48336000      -1.27518300
H        1.21056900      -1.15236000      -2.24946400
H        1.36242000      -2.82545300       0.35642600
H       -0.14065600      -2.49219000      -0.62332800
