18
Properties=species:S:1:pos:R:3 pbc="F F F"
N       -1.10250600       1.86084900      -0.64098500
C        0.33347900       1.58909100      -0.65587000
C        0.73037600       0.50261800       0.35189800
C        0.30220800      -0.92700300      -0.04319400
N       -1.16514700      -1.05003800      -0.05939200
C        0.95329400      -1.96847000       0.89713500
H       -1.33463600       2.61330700      -1.28305500
H       -1.41309000       2.11646900       0.29196800
H        0.92533100       2.50564400      -0.43352400
H        0.62450300       1.28044200      -1.67107900
H        0.31600700       0.74860800       1.33647800
H        1.82017500       0.51704800       0.46551700
H        0.66358100      -1.12669800      -1.07009000
H       -1.55425200      -0.80619900       0.84751400
H       -1.43860300      -2.00344600      -0.28290700
H        0.64388500      -1.81387100       1.92926300
H        2.03907700      -1.90596500       0.86133600
H        0.66545300      -2.97843000       0.61140600
