17
Properties=species:S:1:pos:R:3 pbc="F F F"
N       -2.52652500       0.68201900      -0.88206200
C       -1.06277500       0.72568200      -0.85688500
C       -0.48888300      -0.63522700      -0.44769800
C        1.04498700      -0.69185400      -0.46409100
C        1.72841100       0.14271200       0.63089000
O        1.47104600      -0.36862900       1.92822700
H       -2.90931900       1.59089700      -1.12840000
H       -2.89543100       0.40952100       0.02535300
H       -0.68569800       1.51467400      -0.17192900
H       -0.70150200       0.99360700      -1.86044800
H       -0.87980800      -1.40050400      -1.12505900
H       -0.86069500      -0.90118900       0.55039000
H        1.40878000      -0.35772700      -1.44231800
H        1.36174400      -1.73434800      -0.35823300
H        1.40635600       1.20470900       0.56838500
H        2.81943700       0.12944500       0.48490900
H        0.52300200      -0.52206800       2.03267800
