13
Properties=species:S:1:pos:R:3 pbc="F F F"
O       -0.91647300       1.78559900       0.61476900
C       -1.35343000       0.45496000       0.40451900
C       -0.77408000      -0.06649400      -0.90989900
C        0.76160900      -0.07162000      -0.90740400
C        1.32108200      -1.02695100       0.04899000
N        1.76367800      -1.78090400       0.79756100
H       -1.24563600       2.11094100       1.46246000
H       -2.46324700       0.41797100       0.37032300
H       -1.03733900      -0.18888800       1.25043700
H       -1.11845400       0.56662400      -1.73315800
H       -1.15199100      -1.07544500      -1.10370700
H        1.13026600       0.92923100      -0.65823900
H        1.14135200      -0.31826300      -1.90643400
