21
Properties=species:S:1:pos:R:3 pbc="F F F"
C       -3.42005600      -1.27806100       0.36018700
C       -1.90687600      -1.30617200       0.18862300
C       -1.23290400      -0.02929400       0.71709600
C        0.26734500      -0.06497000       0.59269700
C        0.99326000       0.88157700      -0.01439800
C        2.49739800       0.86977900      -0.10380000
C        3.00957000       1.05280100      -1.53066400
H       -3.87188400      -2.18914400      -0.02666000
H       -3.85872900      -0.43525600      -0.17049300
H       -3.69371500      -1.18724100       1.40966800
H       -1.66142300      -1.43716600      -0.86999000
H       -1.49485300      -2.17675000       0.71005700
H       -1.50467700       0.09720600       1.77451400
H       -1.63099900       0.84414600       0.19049900
H        0.77185700      -0.92108400       1.04298000
H        0.48848900       1.73341200      -0.47151900
H        2.88839900      -0.06300800       0.31500700
H        2.89918300       1.68093400       0.51954200
H        2.67517000       0.24203600      -2.17382600
H        4.09747700       1.07127100      -1.55075700
H        2.64928300       1.98668900      -1.95746500
