16
Properties=species:S:1:pos:R:3 pbc="F F F"
C       -2.18099400      -0.92268100       0.81694200
C       -0.68642700      -0.80921100       0.80849300
C        0.04287300       0.00236100       0.00499900
C        1.50706500      -0.01006900       0.12175600
C        2.35924500       0.72823700      -0.60498500
C       -0.58458200       0.91892500      -1.01136400
H       -2.51147100      -1.57580100       1.62035600
H       -2.56036000      -1.33502000      -0.12036100
H       -2.66232500       0.04631900       0.95553700
H       -0.14910400      -1.44492300       1.51171300
H        1.91244400      -0.68959100       0.87293100
H        2.01586300       1.41980400      -1.36484500
H        3.42845500       0.65379000      -0.45147500
H       -1.66907800       0.85924600      -0.99042800
H       -0.25058100       0.66587200      -2.01823400
H       -0.29692400       1.95493500      -0.83023900
