14
Properties=species:S:1:pos:R:3 pbc="F F F"
C       -2.08922800      -0.23469800       0.41564700
C       -0.58804900      -0.34041900       0.43198000
C        0.05553800      -1.32499100       1.07522100
C        0.15341800       0.72547700      -0.32424700
C        1.13147100       0.39076000      -1.39091800
O        1.56332300       0.82681800      -0.11589000
H       -2.54919500      -1.04150500       0.97980300
H       -2.47442400      -0.26826800      -0.60503300
H       -2.41565400       0.71342900       0.84562300
H       -0.48626200      -2.09174100       1.61522200
H        1.13796500      -1.35736800       1.08167900
H       -0.36097900       1.69870700      -0.39793900
H        1.31395200       1.09505900      -2.21443500
H        1.34910800      -0.65962500      -1.62389900
