19
Properties=species:S:1:pos:R:3 pbc="F F F"
C       -1.44879200      -1.29799300       1.80111400
C       -0.06903700      -1.23663900       1.22003000
C        0.38089000      -0.42624200       0.23873000
C       -0.48476500       0.58445300      -0.45082600
C        0.02417100       1.96420900      -0.78037500
C       -0.24636900       0.99323800      -1.87964800
C        1.81959700      -0.53006900      -0.20221900
H       -1.42670900      -1.06964800       2.86879600
H       -1.86096900      -2.30445200       1.70569600
H       -2.14099900      -0.60717400       1.32768800
H        0.63985000      -1.93810400       1.65991700
H       -1.53466600       0.55261100      -0.16084500
H        1.05892700       2.19923300      -0.55358100
H       -0.66221100       2.79572800      -0.65370200
H        0.60441000       0.57037500      -2.40345600
H       -1.11752500       1.16260700      -2.50495000
H        2.36733500      -1.23910600       0.41386500
H        2.32587300       0.43402400      -0.14084500
H        1.89251600      -0.86184400      -1.23942300
