21
Properties=species:S:1:pos:R:3 pbc="F F F"
C       -1.28182900      -1.47687500       1.64504900
C       -0.87629300      -1.41206600       0.17366500
C       -0.53073300      -0.00318200      -0.29150100
C       -1.48620700       0.93043300      -0.39311600
C        0.93665700       0.24849600      -0.63510900
C        1.18418900       1.55933800      -1.38881400
C        1.81270700       0.17808200       0.62894900
H       -1.55121300      -2.49367700       1.92497500
H       -2.13767100      -0.83461700       1.84004400
H       -0.46821300      -1.15401400       2.29094600
H       -1.70017400      -1.80215100      -0.43498000
H       -0.02485600      -2.07886900       0.00279500
H       -2.51449300       0.70025900      -0.14136000
H       -1.27223000       1.93979200      -0.71873500
H        1.25275100      -0.57965700      -1.29458900
H        0.94246800       2.42318600      -0.77351800
H        0.58492300       1.61036300      -2.29509800
H        2.23203400       1.63804600      -1.67189600
H        1.56093600       0.97818700       1.32136400
H        2.86511500       0.27777800       0.36988000
H        1.67967900      -0.76998400       1.14543400
