21
Properties=species:S:1:pos:R:3 pbc="F F F"
C        0.40178500       1.21383400      -2.22502000
C        0.05349900      -0.11934800      -1.57278300
C        0.65764300      -0.28541700      -0.17168100
C        0.43651000      -1.64318600       0.52513400
C       -0.00136800      -0.92154000       1.80424300
C        0.00905400       0.42903500       1.05422300
C       -1.36435800       1.06342300       0.86268300
H       -0.03632700       1.28464800      -3.21870200
H        1.47937600       1.32921300      -2.32574100
H        0.03282000       2.05125100      -1.63657000
H        0.42052000      -0.93448900      -2.20755500
H       -1.03405900      -0.23617400      -1.52933800
H        1.73030800      -0.04554000      -0.22088600
H        1.32011600      -2.28112600       0.61533200
H       -0.36227500      -2.23619700       0.07259800
H        0.73306300      -0.97790600       2.61156900
H       -0.96972800      -1.22921200       2.20675300
H        0.67992200       1.17180100       1.51207900
H       -2.07404300       0.35794200       0.43572700
H       -1.31202300       1.92886500       0.20440700
H       -1.76426500       1.39612700       1.81952700
