19
Properties=species:S:1:pos:R:3 pbc="F F F"
C       -1.51220100       0.19931000       0.16482800
C        0.01748100       0.22353700       0.25541000
C        0.52281700       0.00682200       1.70030100
C        0.14957600       1.13218600       2.65729200
C        0.64135500      -0.84283200      -0.68124200
C        0.33565500      -0.61954000      -2.09408100
C        0.09703400      -0.43902600      -3.26483300
H       -1.95353700       0.98471700       0.77422000
H       -1.90924200      -0.75482800       0.50701300
H       -1.83569600       0.34821100      -0.86265200
H        0.36507400       1.21181600      -0.08293200
H        1.61401100      -0.09394100       1.67947900
H        0.13534900      -0.94324000       2.08389200
H        0.52768100       2.08885900       2.30243800
H        0.57147900       0.95007100       3.64339900
H       -0.92869800       1.22002200       2.76881500
H        0.28823400      -1.84208600      -0.39366700
H        1.73223900      -0.85080100      -0.55307100
H       -0.11719800      -0.28154200      -4.29298700
