14
Properties=species:S:1:pos:R:3 pbc="F F F"
C       -1.92175600      -0.83229800       0.53248400
O       -0.52947500      -0.73102400       0.27064400
C       -0.00446700       0.50277800       0.02258500
C       -0.71317400       1.65350400       0.03184500
C        1.48639800       0.43602400      -0.23269400
O        1.87244900      -0.84679500      -0.68296300
H       -2.15131800      -1.89006600       0.68911600
H       -2.50829600      -0.45424100      -0.31683800
H       -2.19327700      -0.26518800       1.43440200
H       -1.77136000       1.68732900       0.24455800
H       -0.21358900       2.58763600      -0.18272500
H        2.03383800       0.68891800       0.70357200
H        1.79174400       1.18789200      -0.97915700
H        1.18646200      -1.47977000      -0.41969200
