13
Properties=species:S:1:pos:R:3 pbc="F F F"
C       -0.64925900      -1.60748000       0.58047100
C        0.81617600      -1.30593900       0.50835900
C        1.39757300      -0.16587800       0.11098800
C        0.76071500       1.11630800      -0.36562300
C       -0.69770700       1.15179600      -0.45812600
N       -1.83854000       1.26513400      -0.56204800
H       -0.81048900      -2.61833600       0.94633900
H       -1.12469200      -1.52630900      -0.39643800
H       -1.16747200      -0.92270900       1.25102200
H        1.48200100      -2.11157800       0.81686200
H        2.48648300      -0.12003000       0.12400000
H        1.16444100       1.37006000      -1.35748600
H        1.07452000       1.94012200       0.29362500
