21
Properties=species:S:1:pos:R:3 pbc="F F F"
C       -1.80202600       0.67074300       0.75076400
C       -0.26991400       0.57053500       0.81796400
C        0.15534500      -0.70632300       1.51505800
C        0.94665800      -0.74693300       2.58687600
C        0.38496700       0.70662100      -0.58280300
C        0.00528000      -0.38609200      -1.58901000
C        0.70065200      -0.19790200      -2.93225500
H       -2.22877200       0.68882100       1.75126800
H       -2.23390900      -0.17624700       0.22153400
H       -2.10752500       1.58015200       0.23663200
H        0.09514500       1.41990400       1.41774700
H       -0.22619800      -1.63896100       1.09825000
H        1.34157200       0.15828900       3.03408000
H        1.22330100      -1.68710500       3.04878100
H        1.47292000       0.71560100      -0.45875000
H        0.11496000       1.68462600      -0.99734800
H       -1.07904500      -0.39053500      -1.74040900
H        0.26481900      -1.36878400      -1.18261600
H        0.43935300       0.75942600      -3.37909400
H        0.41492900      -0.98232100      -3.63002500
H        1.78267500      -0.22675000      -2.81961400
