16
Properties=species:S:1:pos:R:3 pbc="F F F"
C       -1.76098000       0.92243200      -0.58649300
C       -0.24001600       0.83377100      -0.57740700
C        0.31475300      -0.15620700       0.48740900
N       -0.08124700      -1.55385100       0.22701800
C        1.84251800      -0.06782100       0.57126800
H       -2.10301300       1.64522900      -1.32441000
H       -2.14087400       1.23054900       0.38589600
H       -2.21270300      -0.03742500      -0.83037400
H        0.17634300       1.82810100      -0.38607000
H        0.11561800       0.53690300      -1.56962200
H       -0.10640900       0.12816900       1.46952400
H        0.30616100      -1.87070800      -0.65850600
H       -1.09372500      -1.63300700       0.17971400
H        2.30204500      -0.33717800      -0.37831700
H        2.22435700      -0.74714500       1.32944000
H        2.16327600       0.94041800       0.82493900
