17
Properties=species:S:1:pos:R:3 pbc="F F F"
C       -2.21192000      -0.86021300       2.55989800
C       -1.28523100       0.29341600       2.17977900
C       -0.79897700       0.20667700       0.75921900
C        0.50076400       0.24589100       0.41146300
C        0.97545300       0.17547800      -0.93837000
C        1.44389400       0.11656300      -2.05760400
C        1.97002600       0.04837400      -3.41327100
H       -2.56459700      -0.74893700       3.58306200
H       -1.69833800      -1.81571300       2.48261000
H       -3.08015600      -0.89410500       1.90520700
H       -0.43164800       0.32514100       2.86497100
H       -1.82871500       1.23912500       2.31705600
H       -1.56023100       0.11193500      -0.01373300
H        1.26932000       0.33601000       1.18293200
H        1.81713900      -0.94469400      -3.84128700
H        3.04071200       0.26073000      -3.42680900
H        1.47245800       0.77339700      -4.06069100
