15
Properties=species:S:1:pos:R:3 pbc="F F F"
C        1.20113200       0.31455800       1.46456000
C       -0.15719900       0.11140200       0.75137200
C        0.01700400       0.09994700      -0.77390000
C        0.61745700      -1.05293500      -1.47721300
O       -0.78413500      -0.82276300      -1.51234400
N       -1.13445000       1.14932100       1.13135600
H        1.06854100       0.33855100       2.54432500
H        1.66445700       1.25337900       1.16559400
H        1.89437600      -0.49091800       1.22930700
H       -0.56828000      -0.86442100       1.05914800
H        0.10130400       1.09290200      -1.24746400
H        0.92893900      -1.94323200      -0.91460900
H        1.13720600      -0.91227500      -2.43399200
H       -0.80882100       2.07102900       0.84923500
H       -1.27384900       1.15401500       2.13879300
