16
Properties=species:S:1:pos:R:3 pbc="F F F"
C       -0.23362400      -2.34723700       1.07079500
C       -1.11725800      -1.35577500       0.32603400
N       -0.53053200      -0.00926000       0.29875000
N        0.73714700       0.06996200      -0.25280300
C        1.13918500       1.21281900      -0.72395000
C        0.32505200       2.48629700      -0.78216500
H       -0.68215300      -3.33836700       1.06819800
H       -0.08927200      -2.04063000       2.10457800
H        0.74525900      -2.41344200       0.60201700
H       -2.09771800      -1.27858100       0.81932500
H       -1.31635600      -1.73399700      -0.69784700
H       -1.18193000       0.69886100      -0.06395600
H        2.16374700       1.24992400      -1.10874300
H       -0.61188700       2.33961900      -1.32510600
H        0.88070900       3.27528300      -1.28150600
H        0.06316000       2.83979500       0.21712100
