21
Properties=species:S:1:pos:R:3 pbc="F F F"
C       -1.70785800      -1.70753300       0.82861600
C       -1.86016600      -0.72187100      -0.32230100
C       -1.22991100       0.65298000      -0.03128400
C        0.27331800       0.61414500       0.17221400
C        0.80928700       0.87446200       1.37266500
C        1.09261900       0.29034700      -1.06078500
C        2.60341800       0.32257500      -0.88171100
H       -2.17408600      -2.66035900       0.58576700
H       -2.17579500      -1.32513500       1.73346200
H       -0.65882100      -1.89066600       1.04879200
H       -2.92406600      -0.57811900      -0.54024000
H       -1.41667700      -1.14640900      -1.22944000
H       -1.70507200       1.08261400       0.85577100
H       -1.46063200       1.32316200      -0.86938700
H        0.17911000       1.10610500       2.22264800
H        1.87855800       0.86195300       1.53788900
H        0.80586500       0.98872600      -1.85836300
H        0.79427500      -0.70015200      -1.42861600
H        2.94356700       1.30508400      -0.56203800
H        3.10004400       0.08578700      -1.82061000
H        2.92949300      -0.40322100      -0.14011200
