19
Properties=species:S:1:pos:R:3 pbc="F F F"
C       -1.09887400      -2.34980500       0.03851000
C       -0.08966400      -1.70217200       0.93056400
C        0.26637800      -0.40420800       0.94323100
C       -0.27252500       0.69038300       0.11124300
C       -1.56712900       0.78256900      -0.24601100
C        0.71734600       1.77455000      -0.27614600
C        1.87587300       1.25006500      -1.12109800
H       -0.76197200      -3.34375000      -0.25520100
H       -1.27988200      -1.76449400      -0.86018600
H       -2.05575200      -2.47715700       0.55049400
H        0.42430800      -2.37281400       1.61999600
H        1.07485800      -0.11362700       1.61629800
H       -2.30181300       0.05713100       0.07711100
H       -1.91982000       1.61651000      -0.84102600
H        1.12145400       2.22808300       0.63820300
H        0.19866000       2.57078900      -0.81827600
H        2.42366300       0.47257000      -0.59268300
H        2.57246100       2.05126800      -1.36042200
H        1.51539700       0.82720500      -2.05607500
