14
Properties=species:S:1:pos:R:3 pbc="F F F"
C       -1.88967400      -0.09312100      -0.52541500
C       -0.35790900      -0.07249400      -0.46316800
C        0.12995700       1.24545500       0.00441900
N        0.49912200       2.28702400       0.32340500
N        0.12977700      -1.14936900       0.41866300
C        1.58326800      -1.30899500       0.40696300
H       -2.26271100       0.70390100      -1.16381700
H       -2.32143000       0.03274800       0.46446100
H       -2.23839800      -1.04279000      -0.92724300
H        0.04076400      -0.19854800      -1.50132600
H       -0.32264600      -2.02921000       0.15896000
H        2.06260600      -0.40864500       0.79738300
H        1.98745000      -1.49503300      -0.60389300
H        1.85821700      -2.15108200       1.04420700
