19
Properties=species:S:1:pos:R:3 pbc="F F F"
C       -1.70674700       0.91884300       2.39587500
C       -0.25002000       1.03774800       2.08325700
C        0.38756900       0.58237900       0.98353000
C       -0.22694800      -0.12670700      -0.13015500
C        0.40460800      -0.57402400      -1.24396000
C        1.87257000      -0.40515900      -1.52360300
C       -0.36809100      -1.29116600      -2.31880700
H       -2.15347300       1.90626500       2.53049600
H       -1.85658500       0.37848100       3.33299500
H       -2.25978800       0.40221300       1.61644400
H        0.34396100       1.55266600       2.83857200
H        1.46032000       0.76208600       0.92271000
H       -1.29781300      -0.31243800      -0.05737300
H        2.41420800       0.01725300      -0.68253100
H        2.02642100       0.24809200      -2.38513800
H        2.32780100      -1.36455200      -1.77379200
H       -1.42445700      -1.36609200      -2.07222900
H        0.01895900      -2.30053600      -2.47080400
H       -0.27720200      -0.77491800      -3.27617300
