19
Properties=species:S:1:pos:R:3 pbc="F F F"
C       -0.48928100       2.69865800      -0.10055800
C       -0.84481300       1.30770200      -0.61013200
C       -0.38609600       0.17309600       0.33260400
C       -0.87283500      -1.23052000      -0.12334400
C        0.34656200      -2.16918700      -0.03699900
C        1.50417900      -1.25222300       0.24184600
C        1.11554800       0.01159400       0.43321800
H       -0.84236700       3.46356600      -0.78943600
H        0.58690300       2.81818800       0.00579900
H       -0.94269400       2.88842000       0.87074500
H       -0.40853400       1.15812000      -1.60290500
H       -1.93100900       1.23945200      -0.73971800
H       -0.78862800       0.39634300       1.33790100
H       -1.24793300      -1.18887400      -1.15043100
H       -1.70286000      -1.58718800       0.49271200
H        0.49177600      -2.74382600      -0.96024200
H        0.23321100      -2.91263400       0.76345500
H        2.53035200      -1.60492000       0.29233000
H        1.78219500       0.83863600       0.65998300
