16
Properties=species:S:1:pos:R:3 pbc="F F F"
C       -1.15700800      -1.38163100      -0.73417100
C       -1.36872300       0.11116300      -0.97475800
O       -0.61794100       0.93815000      -0.08233900
C        0.79214700       0.96496400      -0.30389800
C        1.57109600       0.10308200       0.65896100
C        1.05343500      -0.49397700       1.73178000
H       -1.77265900      -1.96648100      -1.41545700
H       -1.42723100      -1.65446800       0.28342900
H       -0.11828600      -1.66457100      -0.89159900
H       -2.42789300       0.37392100      -0.82329000
H       -1.11322800       0.36540300      -2.02577000
H        1.12830100       2.01638700      -0.19448900
H        1.02486900       0.67669600      -1.34970600
H        2.63865100       0.01183100       0.45069500
H       -0.00258500      -0.40144600       1.95624700
H        1.66791300      -1.08407800       2.40116500
