17
Properties=species:S:1:pos:R:3 pbc="F F F"
C       -2.48431900      -0.49108800       0.95492800
N       -1.02517900      -0.45232100       0.97744900
C       -0.46268100       0.73575000       0.32517700
C        1.07132900       0.72345900       0.34378100
C        1.70873200      -0.34550900      -0.55723800
O        1.44916600      -0.10946900      -1.93108300
H       -2.83376700      -1.40440800       1.44113300
H       -2.90478300      -0.46412000      -0.06721100
H       -2.89134600       0.36537400       1.49961500
H       -0.64657100      -1.30152200       0.55159500
H       -0.82544800       1.62963400       0.85455300
H       -0.82556500       0.83982300      -0.72375700
H        1.41794900       0.57288200       1.37139900
H        1.43493900       1.70850000       0.03427900
H        1.35076700      -1.35848600      -0.27020300
H        2.80148200      -0.34448000      -0.42602700
H        0.50690100       0.06313200      -2.05874800
