15
Properties=species:S:1:pos:R:3 pbc="F F F"
C        1.26946400       1.27657800      -0.02797900
C        0.72768100       0.06418500      -0.81104200
C       -0.81988700       0.02657200      -0.80768000
C       -1.39226200      -0.09848700       0.53278600
C       -1.86685500      -0.20865800       1.63874700
N        1.24898100      -1.21501500      -0.29897100
H        2.35717100       1.29898600      -0.06063900
H        0.96361300       1.23431600       1.01485400
H        0.90071400       2.20981400      -0.44888200
H        1.05180900       0.16207400      -1.86498800
H       -1.21004800       0.93815300      -1.27836100
H       -1.16339200      -0.81732200      -1.41844500
H       -2.29205800      -0.30230100       2.60743000
H        0.87629400      -1.39388700       0.63147700
H        2.26418900      -1.18586300      -0.23864200
