18
Properties=species:S:1:pos:R:3 pbc="F F F"
N        1.83708900       0.78990300      -1.15212200
C        1.34537600       1.03765200       0.20600000
C       -0.17449700       0.87122100       0.29201100
C       -0.67988600      -0.53402100      -0.09746600
N       -2.15153200      -0.49097200      -0.24697800
C       -0.24760800      -1.61604700       0.91408900
H        2.83866500       0.95454400      -1.20663000
H        1.37072200       1.40036900      -1.81836800
H        1.61166400       2.05750200       0.55849500
H        1.84683400       0.34001200       0.89288300
H       -0.65136100       1.60329800      -0.36806900
H       -0.50494800       1.11265000       1.30869000
H       -0.25674600      -0.79317200      -1.08317600
H       -2.58709100      -0.23853300       0.63732200
H       -2.50294800      -1.40555800      -0.52062100
H       -0.63598400      -1.40111600       1.90847800
H        0.83571300      -1.68290100       0.98325600
H       -0.62373300      -2.59243600       0.61363900
