17
Properties=species:S:1:pos:R:3 pbc="F F F"
C       -2.84060200      -0.69638100       0.87002600
C       -1.32192400      -0.73267900       0.98903900
C       -0.63828000       0.06105100      -0.12659200
C        0.87673400       0.07942600      -0.07698700
C        1.62570000      -0.54406300       0.85115900
C        1.50910700       0.83963400      -1.13002300
C        2.00447400       1.48659000      -2.02700900
H       -3.30505600      -1.26617800       1.67174500
H       -3.16931500      -1.12005400      -0.07671200
H       -3.21374100       0.32432100       0.92387900
H       -0.98054800      -1.77258100       0.96492200
H       -1.02387200      -0.33055800       1.96262600
H       -0.99828800       1.09757100      -0.11159900
H       -0.94808700      -0.33570700      -1.10170400
H        1.17620900      -1.11908300       1.65022700
H        2.70610700      -0.48644400       0.82216900
H        2.46534600       2.04724300      -2.80322700
