21
Properties=species:S:1:pos:R:3 pbc="F F F"
C        0.41740700       2.29349000      -0.32419600
C       -0.54491300       1.10994000      -0.15035700
C        0.10597200      -0.19396600      -0.67688600
C        1.25063500      -0.84001700       0.13196300
C        0.51588500      -2.18549500       0.08516600
C       -0.69201500      -1.51104100      -0.57686500
C       -1.02941200       1.01978600       1.30231000
H        0.71753400       2.40314700      -1.36456700
H        1.31809700       2.15457400       0.27043100
H       -0.04999100       3.22379800      -0.00782400
H       -1.42916400       1.30204200      -0.78195600
H        0.42082500      -0.01086800      -1.71531400
H        1.36729400      -0.43904200       1.14131500
H        2.23121200      -0.82381700      -0.35154700
H        0.31913300      -2.64513900       1.05721300
H        1.00353900      -2.93210500      -0.54635900
H       -1.57171400      -1.45775600       0.06879200
H       -1.00358100      -1.93961000      -1.53343000
H       -0.19947300       0.87011800       1.98992500
H       -1.73025800       0.19871700       1.43661600
H       -1.53480900       1.93976000       1.58989400
