21
Properties=species:S:1:pos:R:3 pbc="F F F"
C        0.96433700       0.53878000      -1.92474200
C        0.33263000      -0.44077200      -0.92716600
C       -1.19715500      -0.23413600      -0.85546400
C       -1.92923100      -1.32329200      -0.08171300
C        1.00997900      -0.35115500       0.46573100
C        0.76892900       0.94450600       1.18951800
C        0.29815200       1.03588100       2.43399300
H        2.03881000       0.38149600      -1.99829900
H        0.79692700       1.57251800      -1.62915700
H        0.53724600       0.40620400      -2.91694200
H        0.51802700      -1.46071700      -1.30340700
H       -1.41012000       0.74056600      -0.40545800
H       -1.59226900      -0.19559400      -1.87667100
H       -1.61732400      -1.34889000       0.95994700
H       -1.73966600      -2.30532100      -0.51182400
H       -3.00340600      -1.15060000      -0.10260500
H        2.09231600      -0.47986200       0.32564400
H        0.67742700      -1.18703300       1.08863400
H        1.01940200       1.85724800       0.64793400
H        0.03705800       0.15396300       3.00752900
H        0.15973700       1.99714600       2.91374100
