17
Properties=species:S:1:pos:R:3 pbc="F F F"
C       -1.92589300      -0.04696700      -0.01832200
C       -0.97500300      -1.29422000       0.23647600
C        0.33417300      -0.68698900      -0.25666300
C        0.23280400       0.72165200       0.24352100
N       -1.08608900       1.19758900      -0.26340600
C        1.74569200       0.83770000      -0.06027000
N        1.83198500      -0.67826500       0.09391800
H       -2.57708200       0.11373300       0.85323000
H       -2.58110700      -0.21284800      -0.88187400
H       -1.30998000      -2.17613200      -0.31737500
H       -0.95676100      -1.55201900       1.29957400
H        0.29852800      -0.68757200      -1.36166200
H        0.15253600       0.69822200       1.34646400
H       -1.02790900       1.34800100      -1.27634900
H        2.36178600       1.40447600       0.64880700
H        2.00330000       1.12827900      -1.08645000
H        1.94478000      -0.88645900       1.09359300
