13
Properties=species:S:1:pos:R:3 pbc="F F F"
C       -1.38713500      -0.33798500       1.54836100
C        0.09559900      -0.41137300       1.34040500
C        0.73710000      -0.12496300       0.18940100
C        0.08914200       0.30320600      -1.04450400
C        0.75660700       0.58577000      -2.17402100
H       -1.65145500      -0.63310700       2.56031000
H       -1.92254100      -0.99288300       0.85950100
H       -1.76500700       0.67276800       1.38712800
H        0.69032900      -0.72184900       2.19830600
H        1.82250400      -0.21511800       0.16104000
H       -0.99658300       0.39424400      -1.02941900
H        1.83646300       0.50625500      -2.22410800
H        0.23841200       0.90176300      -3.07061600
