17
Properties=species:S:1:pos:R:3 pbc="F F F"
C       -0.89889900       1.81572300       0.32030700
C        0.18343500       1.32500900      -0.64677700
C       -0.55664800      -0.02793400      -0.67498400
N       -1.63823800       0.53897500       0.19091300
C        0.13068800      -1.25863300      -0.08704300
C        1.59443900      -1.49750700      -0.22904600
N        1.02406200      -1.13767800       1.06986100
H       -1.47867800       2.69086600      -0.01315300
H       -0.54136400       2.01828500       1.34200900
H        1.19968100       1.30622400      -0.24227800
H        0.21068500       1.84412600      -1.60802600
H       -0.94607900      -0.29046900      -1.68049800
H       -1.73365800       0.04242700       1.08038200
H       -0.51777500      -2.14316900      -0.04275500
H        2.20557800      -0.74537200      -0.73286900
H        1.97406500      -2.51742200      -0.30675200
H        1.20868600      -0.15452000       1.28376700
