17
Properties=species:S:1:pos:R:3 pbc="F F F"
C       -2.46909600      -0.59436400      -0.19565700
N       -1.00872200      -0.60225800      -0.27220300
C       -0.43673800       0.67807500      -0.72662800
C        1.09642900       0.62871700      -0.74106500
C        1.71854600       0.55136500       0.66271300
O        1.36595600      -0.64372600       1.33272300
H       -2.82334000      -1.57952700       0.11410800
H       -2.94886200      -0.34342500      -1.15742600
H       -2.80293000       0.13947400       0.54240900
H       -0.69891200      -1.35332500      -0.89490400
H       -0.78148000       1.47497800      -0.05109300
H       -0.81041600       0.94689300      -1.73728300
H        1.47445400       1.52324800      -1.24799500
H        1.42781000      -0.22889600      -1.33621300
H        1.40077400       1.43568400       1.25964200
H        2.81816200       0.58998300       0.59366900
H        0.42330200      -0.82223300       1.16254100
