13
Properties=species:S:1:pos:R:3 pbc="F F F"
C       -1.51925800       0.72983100       1.11444300
C       -0.00900000       0.63944800       1.08516000
N        0.70845200       1.34196500       0.03313800
C        0.74630800      -0.13459600       0.02773600
C        0.03639100      -0.82638900      -1.10111200
O        0.28179800      -1.95903800      -1.44464600
H       -1.83638300       1.59887600       1.68977500
H       -1.95501500      -0.15212100       1.58201300
H       -1.93009600       0.82392800       0.11277300
H        0.46544800       0.64977800       2.07607500
H        1.59394000       1.72110900       0.37756700
H        1.68549600      -0.59788000       0.34988100
H       -0.76358000      -0.21491100      -1.62025300
