19
Properties=species:S:1:pos:R:3 pbc="F F F"
C        1.01984200       1.93088100      -0.00237500
C        0.91883300       1.14204000       1.26392900
C        0.34056500      -0.05487500       1.42803900
C       -0.34446100      -0.91373900       0.36689600
C       -1.33029100      -0.12893600      -0.47770600
C       -1.55693000      -0.28743100      -1.78276000
C        0.68873000      -1.70298600      -0.45291500
H        0.52146700       2.89616200       0.10486900
H        0.57818300       1.40894100      -0.84577100
H        2.06490200       2.14168000      -0.23538100
H        1.37828200       1.60772800       2.13712600
H        0.38036500      -0.49794700       2.42361300
H       -0.94851200      -1.65529000       0.92347500
H       -1.93080900       0.59580800       0.07341900
H       -0.99620300      -0.99156900      -2.38521800
H       -2.31571200       0.29711000      -2.28863800
H        1.29181800      -1.03914600      -1.06788500
H        0.20062600      -2.42345200      -1.10637600
H        1.35786300      -2.24975600       0.20812200
