17
Properties=species:S:1:pos:R:3 pbc="F F F"
C       -1.32015400      -0.32125600      -2.47076800
C       -1.25086900       0.13591100      -1.35419300
C       -1.22426700       0.70803800      -0.00710100
C       -0.74971100      -0.27402100       1.07791900
C        0.75450200      -0.52335300       1.15054800
C        1.66968200      -0.39146200      -0.02672700
C        1.75432100       0.59261500       1.09759400
H       -1.35539800      -0.73188600      -3.44970100
H       -2.24026400       1.04413100       0.24018300
H       -0.59612000       1.60802800      -0.00947900
H       -1.26218200      -1.23234900       0.93889600
H       -1.08664000       0.10638700       2.05115500
H        1.00491000      -1.32890100       1.84424400
H        1.25373900      -0.04809000      -0.96711000
H        2.47211100      -1.11582000      -0.12632900
H        1.39611200       1.60095600       0.91468600
H        2.61270500       0.53870700       1.75982000
