19
Properties=species:S:1:pos:R:3 pbc="F F F"
C        0.15792100       2.61321800      -1.21328100
C       -0.16684400       1.45682100      -1.07857000
C       -0.57476900       0.05993900      -0.93654100
C       -0.00879200      -0.63674900       0.34231700
C       -0.49655200       0.10908600       1.60181500
C       -0.52299000      -2.09287400       0.37193600
C        1.53347900      -0.63432500       0.29844900
H        0.44520000       3.62929400      -1.32819700
H       -0.25097400      -0.49550100      -1.82639800
H       -1.67142100       0.01204600      -0.92085300
H       -1.58347600       0.11157600       1.65561100
H       -0.15577700       1.14156300       1.59433800
H       -0.11573600      -0.36765000       2.50268200
H       -1.61045300      -2.12277300       0.40161700
H       -0.14910000      -2.61530300       1.24960000
H       -0.19586100      -2.64088900      -0.50955600
H        1.91657900       0.38257800       0.26195400
H        1.89832500      -1.16523600      -0.57867800
H        1.94397000      -1.12040200       1.18112300
