17
Properties=species:S:1:pos:R:3 pbc="F F F"
C        1.40267600      -0.68211300      -0.42433000
C        1.44445300       0.78463900      -0.08656500
C        0.35094000       1.46616800       0.28288700
C       -0.98129200       0.81467200       0.39662000
C       -1.01609400      -0.69116300       0.39711400
C        0.30581200      -1.43997700       0.33832900
C       -1.53996000       0.05757600      -0.78691300
H        2.37632800      -1.14063200      -0.21601500
H        1.24756400      -0.80428200      -1.50642300
H        2.40327300       1.29374000      -0.16995900
H        0.41880400       2.52718200       0.51944600
H       -1.71123600       1.33656900       1.01754800
H       -1.76827500      -1.15483700       1.03944300
H        0.16373600      -2.42921600      -0.11535500
H        0.64459100      -1.62556100       1.36546300
H       -2.61579400       0.08465200      -0.93487400
H       -0.95819900       0.05357100      -1.70213000
