7
Properties=species:S:1:pos:R:3 pbc="F F F"
O       -2.07273800       1.26739000      -1.45633300
C       -0.87521900       1.18208100      -1.35819800
C       -0.18208300       0.33393600      -0.38341300
C        0.49785100      -0.33128500       0.38081700
C        1.21997800      -1.11348900       1.27941300
N        1.82699600      -1.76130500       2.02346800
H       -0.17022700       1.76255600      -2.02532500
