15
Properties=species:S:1:pos:R:3 pbc="F F F"
C       -2.35670100      -0.27671900       0.09156800
C       -1.15058100      -0.76856200      -0.19332200
C       -0.39600000      -0.46185700      -1.45636800
C        1.03246400      -0.01902600      -1.28666200
C        1.63823500       0.42032200      -0.16779500
C        1.05342300       0.55651000       1.13090100
C        0.70016400       0.73701000       2.27844900
H       -2.87474000      -0.55237800       1.00168300
H       -2.85349400       0.42418700      -0.56967600
H       -0.68000700      -1.47330000       0.49121900
H       -0.93619400       0.29654600      -2.04073800
H       -0.39278200      -1.36227500      -2.09115800
H        1.62720800      -0.04059500      -2.20060600
H        2.68683700       0.71988400      -0.22492600
H        0.29714800       0.86185700       3.25356900
