12
Properties=species:S:1:pos:R:3 pbc="F F F"
C       -1.15282400      -0.35490700      -0.02012000
C       -0.22465700      -1.57390100       0.04736000
C        1.16727200      -1.00592600       0.06690800
C        1.18852400       0.33552400       0.02129900
C       -0.20458900       0.86166600      -0.03551500
O       -0.54917600       2.02704100      -0.08397200
H       -1.82863700      -0.30208600       0.83714200
H       -1.78165200      -0.36201500      -0.91400900
H       -0.35796500      -2.24516100      -0.80920800
H       -0.40707700      -2.18541600       0.93896800
H        2.04401600      -1.64682700       0.11401000
H        2.08236500       0.95043500       0.02528500
