18
Properties=species:S:1:pos:R:3 pbc="F F F"
C        0.77603400       1.95385300       1.15076300
C        1.41919200       0.61680400       0.76438400
C        0.01828900       0.03183400       0.47552200
C       -0.58926300       1.43755700       0.68059200
C       -0.19561200      -0.61869300      -0.88499100
C       -1.37711500      -1.48827700      -1.15280600
N       -0.04958100      -2.07518100      -0.96881100
H        1.15589100       2.83143500       0.62136400
H        0.81614800       2.16444500       2.22206300
H        1.98737700       0.11696600       1.55286000
H        2.05515100       0.68129100      -0.12235200
H       -0.29948000      -0.66549200       1.26157100
H       -1.39885600       1.50195900       1.41240000
H       -0.93403000       1.90389900      -0.24612500
H        0.19570800      -0.04902100      -1.73923100
H       -1.80000700      -1.51169800      -2.15958600
H       -2.09124100      -1.69514800      -0.35433400
H        0.35125800      -2.35083600      -1.86773800
