12
Properties=species:S:1:pos:R:3 pbc="F F F"
O       -2.41257200      -0.63845400       1.41701500
C       -1.03058600      -0.87355800       1.25962900
C       -0.49138400      -0.01515400       0.15313100
C        0.79588400       0.00960900      -0.23819900
C        1.27070300       0.87868300      -1.34206100
O        2.41918600       0.92327000      -1.72392600
H       -2.76813900      -1.18468400       2.12951300
H       -0.84477400      -1.94916300       1.04084700
H       -0.49216900      -0.66394600       2.21093400
H       -1.21504100       0.62430200      -0.35489600
H        1.53520600      -0.62116300       0.25520400
H        0.46430100       1.51865200      -1.82130800
