17
Properties=species:S:1:pos:R:3 pbc="F F F"
C        0.74906800      -1.59145100       0.82811000
C        0.39054300      -0.10482300       0.63331900
N       -1.07290300       0.14589400       0.51255500
C       -1.76291400      -0.55231700      -0.57297200
C        1.13202900       0.51255400      -0.56933500
O        0.70902100       1.84973600      -0.76169400
H        1.81475000      -1.70410700       1.01788000
H        0.50504700      -2.17993300      -0.05401000
H        0.21017100      -2.01399200       1.67389100
H        0.70699500       0.44072900       1.54109100
H       -1.52534600      -0.08014500       1.40150900
H       -1.33707700      -0.27305500      -1.53908900
H       -2.81630900      -0.26122100      -0.57048600
H       -1.71892200      -1.65133100      -0.48897200
H        0.95332100      -0.08600000      -1.48894400
H        2.21997100       0.50917500      -0.39344900
H       -0.22680300       1.89695500      -0.50848500
