14
Properties=species:S:1:pos:R:3 pbc="F F F"
C        0.96905700      -0.23342400       1.15896900
C        0.50164000       0.29846600      -0.20958400
C       -1.00512400       0.34436900      -0.37342000
C       -1.91011500       0.26126600       0.60153700
N        1.08679600      -0.46877100      -1.33138300
H        2.05625300      -0.25693700       1.20306600
H        0.60464900      -1.24328700       1.33497900
H        0.61688700       0.39995200       1.96988800
H        0.87248800       1.33949800      -0.31143600
H       -1.34667400       0.48143600      -1.39954600
H       -1.62992300       0.12060400       1.63873900
H       -2.96934100       0.32923800       0.38428600
H        0.75415500      -1.42996800      -1.31055400
H        2.10118300      -0.48320400      -1.25475600
