19
Properties=species:S:1:pos:R:3 pbc="F F F"
C       -1.65061500      -0.16950800       0.63609900
C       -0.15763500      -0.07515100       0.48847200
C        0.46893100       0.59190500      -0.51159100
C       -0.16654900       1.32212800      -1.60067500
C        0.51987800       1.94954700      -2.56999000
C        0.65812300      -0.78090000       1.55502500
C        0.46800400      -2.29802500       1.56513100
H       -2.17959200       0.49495800      -0.04122200
H       -1.95120800       0.07341100       1.65608600
H       -1.99465500      -1.18732800       0.44093000
H        1.55912800       0.59010900      -0.51844400
H       -1.25528900       1.35532900      -1.62443600
H        1.60344800       1.94168000      -2.58868700
H        0.01094200       2.48169100      -3.36351500
H        0.38024700      -0.38577500       2.54105100
H        1.71936700      -0.55247200       1.41513300
H       -0.56781600      -2.56510400       1.76328500
H        1.08542900      -2.75393900       2.33644300
H        0.74917500      -2.73253600       0.60854400
