21
Properties=species:S:1:pos:R:3 pbc="F F F"
C       -2.73363400      -0.99967800       1.34628300
C       -1.21818600      -1.10008000       1.20494300
C       -0.68540800      -0.32212600       0.00735400
C       -0.36435000       1.14001200       0.13233500
C        0.74432200       0.13934700      -0.02780700
C        1.54409000       0.07520100      -1.32360200
C        2.71970800       1.04687800      -1.34138800
H       -3.08160800      -1.56253600       2.21018600
H       -3.23490800      -1.39455800       0.46469500
H       -3.04613800       0.03493300       1.47074000
H       -0.93501400      -2.15589200       1.11043300
H       -0.74059900      -0.73419000       2.11983600
H       -1.11249000      -0.62716500      -0.95018300
H       -0.48992500       1.60850700       1.10373000
H       -0.59507600       1.78389600      -0.71072800
H        1.33230600      -0.05551000       0.87117600
H        0.88278200       0.28560200      -2.17053100
H        1.91921700      -0.94523700      -1.47137000
H        2.37904200       2.07507200      -1.23988900
H        3.27548000       0.96694200      -2.27347200
H        3.40768400       0.84281300      -0.52333600
