16
Properties=species:S:1:pos:R:3 pbc="F F F"
N        0.61582000      -0.58844500      -2.64016200
C        0.43901200       0.29243300      -1.48418900
C        0.32782900      -0.52020000      -0.18837300
C        0.19439700       0.36290700       1.04386400
C       -1.14482400       0.75921900       1.56399700
N       -0.32639400      -0.21720100       2.28549700
H        0.67356900      -0.04770600      -3.49900000
H       -0.16018400      -1.24074800      -2.71858700
H       -0.45657600       0.94188200      -1.59015300
H        1.30245800       0.97114300      -1.42423600
H        1.21220000      -1.16020900      -0.08974000
H       -0.53335600      -1.19536300      -0.25299000
H        1.02316700       1.06475000       1.19879500
H       -2.03774600       0.38510100       1.05889700
H       -1.27409200       1.71962800       2.06529300
H       -0.67390200      -1.16512400       2.12257900
