18
Properties=species:S:1:pos:R:3 pbc="F F F"
C        0.23354000      -0.51867800       1.96117100
C       -0.16662200       0.68398600       1.11632300
C        0.23631100       0.55942500      -0.37578700
O       -0.29151100      -0.64384100      -0.96746800
C       -1.67760300      -0.61533900      -1.23511900
C        1.75092600       0.55228400      -0.58500300
H       -0.13600000      -0.41588500       2.97969000
H        1.31513300      -0.62716300       2.00717100
H       -0.17620300      -1.43361800       1.54043300
H        0.28420100       1.59419500       1.52697700
H       -1.25094800       0.82527300       1.18198200
H       -0.19603900       1.43516900      -0.91904000
H       -1.94058400      -1.53969600      -1.75956800
H       -1.94897900       0.24634500      -1.87327400
H       -2.28101300      -0.55376200      -0.31068600
H        2.20971800      -0.30862900      -0.10441500
H        2.20412000       1.45236000      -0.17357500
H        1.98937100       0.50606900      -1.64545900
