13
Properties=species:S:1:pos:R:3 pbc="F F F"
C       -0.61491200      -0.37222200      -1.80607800
C       -0.71864000      -0.31687400      -0.28485300
N        0.07239200      -1.36894100       0.45288500
C        0.95305200      -0.35535600       1.10483800
C        0.12589100       0.74750500       0.44216300
O        0.13256100       1.95472300       0.47990400
H       -1.08215900      -1.27790100      -2.19033800
H        0.42381100      -0.36535700      -2.13247300
H       -1.11555600       0.48383000      -2.25350100
H       -1.78180000      -0.32589900       0.01868400
H        0.58338600      -1.99197000      -0.17745400
H        2.00425700      -0.40198600       0.78549700
H        0.92848500      -0.39423200       2.20373400
