14
Properties=species:S:1:pos:R:3 pbc="F F F"
C       -1.09698700      -0.94143400       2.09443900
C       -1.61962600      -0.64681100       0.88821200
O       -0.95537100      -0.18675400      -0.19362300
C        0.45238300       0.02701800      -0.06994800
C        0.99514600       0.51323500      -1.38373200
C        2.09595400       1.25433700      -1.51148700
H       -1.74390000      -1.30416400       2.87951600
H       -0.04676700      -0.83041500       2.32195500
H       -2.68810800      -0.76772700       0.68257700
H        0.93762000      -0.92927200       0.21784100
H        0.65436800       0.74460900       0.74718800
H        0.44542100       0.20372800      -2.27188600
H        2.66313400       1.58316300      -0.64745700
H        2.45998200       1.55603900      -2.48565600
