19
Properties=species:S:1:pos:R:3 pbc="F F F"
C       -3.16299300       0.03499700       0.74679200
C       -1.69210400      -0.17656200       0.59612700
C       -0.92237700       0.50058100      -0.27669700
C        0.52743700       0.33021700      -0.46185900
C        1.16769300       1.08344400      -1.37924900
C        1.23353200      -0.69788900       0.40089600
C        2.73029400      -0.84126300       0.16870300
H       -3.40988600       0.34157100       1.76530400
H       -3.71079800      -0.89009200       0.55642300
H       -3.53048800       0.79629900       0.06270500
H       -1.24872200      -0.92997900       1.24668000
H       -1.39463600       1.24858700      -0.91421300
H        0.62374400       1.80600900      -1.97587800
H        2.23163100       0.99671700      -1.55348800
H        0.75171500      -1.67181500       0.24694600
H        1.05631500      -0.45028700       1.45526700
H        2.94634000      -1.13832800      -0.85523100
H        3.14159300      -1.60105200       0.83042900
H        3.25429900       0.09121600       0.36678000
