12
Properties=species:S:1:pos:R:3 pbc="F F F"
O       -1.26488400       0.44999700       1.16466400
C        0.13456900       0.44489000       1.14246800
C        0.85401600       1.24222200       0.09575100
C        0.83128200      -0.27462300       0.02128000
C        0.07882300      -0.92534300      -1.03132500
C       -0.50667500      -1.49304500      -1.92432900
H       -1.59925800       1.32094700       1.41500400
H        0.60236500       0.38094600       2.14211800
H        1.79812500       1.71531000       0.35152700
H        0.25609300       1.77666800      -0.63383800
H        1.76817300      -0.77820900       0.27436600
H       -1.05850600      -1.98024400      -2.68956000
