18
Properties=species:S:1:pos:R:3 pbc="F F F"
C       -1.71246800       0.33652100      -1.43249700
C       -0.20573000       0.42086600      -1.22547700
C        0.20421400       0.71378800       0.23692700
C       -0.20162500      -0.38659800       1.24841200
C        0.36877600      -1.76933900       0.95248000
O        1.61557200       0.94551700       0.29790700
H       -1.95015000       0.20024200      -2.48524800
H       -2.20485400       1.24641200      -1.09426900
H       -2.14382600      -0.49858300      -0.88441800
H        0.20131800       1.21635400      -1.85656600
H        0.26539700      -0.50783300      -1.56520700
H       -0.27357100       1.66054300       0.55426400
H       -1.29385600      -0.44826800       1.29154500
H        0.12711900      -0.07106100       2.24316000
H       -0.00084900      -2.16024000       0.00667800
H        0.08969200      -2.47225600       1.73433400
H        1.45657200      -1.74658800       0.90385800
H        2.08342900       0.12571300       0.08955100
