14
Properties=species:S:1:pos:R:3 pbc="F F F"
C       -1.39922700       0.51183800      -1.02190800
C        0.13423600       0.52409100      -0.95996100
C        0.66467100       0.81315200       0.47288300
C        0.25360200      -0.20632700       1.43739000
C       -0.08884700      -1.07178300       2.20849500
O        0.66668900      -0.71145700      -1.42922600
H       -1.80901900       1.47573200      -0.72643400
H       -1.81017500      -0.24625800      -0.35804300
H       -1.73602800       0.29431700      -2.03257600
H        0.52200300       1.31005500      -1.63540000
H        0.31065000       1.79571700       0.81023700
H        1.76004200       0.86088200       0.45023000
H       -0.38256100      -1.80968100       2.91424400
H        0.42496000      -1.41493000      -0.80984400
