17
Properties=species:S:1:pos:R:3 pbc="F F F"
C       -0.13221300      -2.36981600      -0.43539300
C       -0.12955800      -0.95869400      -1.00978100
N        0.44300500       0.00783900      -0.06293500
C        0.45431700       1.43383800      -0.46385900
C       -0.11620800       1.82710000       0.90343300
C       -0.33265900       0.33104000       1.15813600
H       -0.56825500      -3.07368200      -1.14159300
H       -0.71173300      -2.41524300       0.48491500
H        0.87868700      -2.70173200      -0.20783700
H       -1.16473300      -0.67697100      -1.30520100
H        0.47079300      -0.93361500      -1.93203300
H       -0.21978000       1.66333600      -1.30781100
H        1.45545300       1.82161300      -0.71680400
H       -1.01712200       2.44557800       0.88631100
H        0.60908100       2.29554300       1.57336500
H       -1.39112600       0.02201500       1.10564400
H        0.09562800      -0.08252300       2.08638100
