23
Properties=species:S:1:pos:R:3 pbc="F F F"
C       -3.45019300       0.25165400       0.62612800
C       -1.92881700       0.33905400       0.61987300
C       -1.27718300      -0.83697700      -0.11893800
C        0.25618500      -0.83794400      -0.05524500
C        0.90688700       0.31159200      -0.83500500
C        2.44038400       0.24074100      -0.86485800
C        3.09595600       0.44925000       0.49529000
H       -3.88605400       1.09623800       1.15607800
H       -3.78809300      -0.66063900       1.11437500
H       -3.84714300       0.25101200      -0.38719700
H       -1.56176400       0.36978600       1.65139500
H       -1.62179100       1.28242700       0.15681800
H       -1.60215600      -0.83317900      -1.16522100
H       -1.64718000      -1.77437200       0.31132000
H        0.62332700      -1.79071200      -0.45359500
H        0.57608400      -0.80155000       0.99142700
H        0.59641800       1.27111600      -0.40849200
H        0.53523000       0.29921900      -1.86593800
H        2.81248800       1.00247800      -1.55886700
H        2.75332900      -0.72595900      -1.27454100
H        2.81419100       1.40985900       0.92213200
H        4.18034800       0.42636300       0.40700400
H        2.80344900      -0.32630600       1.19982800
