17
Properties=species:S:1:pos:R:3 pbc="F F F"
C       -3.12162200      -0.22436700      -0.38534700
C       -1.66593500      -0.23001300      -0.38510200
C       -0.45167200      -0.23741300      -0.39082000
C        0.99003100      -0.25181400      -0.40806900
C        1.65490600      -0.87152800      -1.40385500
C        1.73946700       0.44766200       0.71831000
C        0.85130100       1.07813300       1.78003800
H       -3.51199800      -1.02817000       0.24221800
H       -3.51096300      -0.36556300      -1.39529300
H       -3.50828400       0.72139200      -0.00084200
H        1.12885700      -1.36895400      -2.20764800
H        2.73755500      -0.88677600      -1.42461500
H        2.38963600       1.21753000       0.28467300
H        2.41666700      -0.27312600       1.19253100
H        0.20100600       1.83596600       1.34914200
H        1.45675600       1.55222600       2.55011000
H        0.22191900       0.33151800       2.25879700
