19
Properties=species:S:1:pos:R:3 pbc="F F F"
C       -2.24622000       0.65956900       1.96966500
C       -1.38627200       1.03781400       1.02313400
C       -0.93576000       0.15741100      -0.10840900
C        0.60887200      -0.02234500      -0.18046800
C        0.95019600      -1.07110400      -1.22029000
C        1.54193200      -2.23471000      -0.95180600
C        1.32402700       1.29930000      -0.50290300
H       -2.54907300       1.33834900       2.75755700
H       -2.67181900      -0.33725700       1.98159300
H       -0.98142800       2.04999300       1.04594300
H       -1.28215400       0.58517600      -1.05888000
H       -1.40603100      -0.82608300      -0.01678900
H        0.95942600      -0.37708400       0.80017400
H        0.68162900      -0.83114600      -2.25008800
H        1.82411000      -2.50661500       0.05905300
H        1.76221200      -2.94831700      -1.73671700
H        0.99459000       1.69901000      -1.46040300
H        2.40017500       1.14963600      -0.55587600
H        1.12771600       2.04873000       0.26089700
