17
Properties=species:S:1:pos:R:3 pbc="F F F"
C       -1.10240000       0.14432000      -1.89508400
C       -0.74457100       0.04473200      -0.41424200
C        0.07410600      -1.20172600      -0.04555600
N        0.72249600      -0.85134100       1.22265800
C        0.89645800       0.61197100       1.29651200
C        0.12914400       1.20197800       0.10552500
H       -1.69142300      -0.71469800      -2.21243000
H       -0.20839700       0.18260300      -2.51559100
H       -1.68613000       1.04088300      -2.09606000
H       -1.67884400       0.02771900       0.16859500
H        0.81318400      -1.43149900      -0.84036600
H       -0.55582600      -2.10032200       0.06358400
H        1.60102500      -1.35152500       1.35925500
H        1.96376200       0.89123600       1.26703800
H        0.50797900       1.00065600       2.25635800
H        0.82516400       1.52886200      -0.67446200
H       -0.46438600       2.07782200       0.38254200
