12
Properties=species:S:1:pos:R:3 pbc="F F F"
O       -0.85472100       1.70323800       0.30164700
C       -1.80905500       0.68308800       0.05189100
C       -0.44254300       0.35297100       0.52097300
C        0.61347400      -0.17914000      -0.42843500
O        1.74904100      -0.79356500       0.18331400
C        0.87616600      -1.63194700      -0.55766200
H       -2.07891500       0.54556300      -1.00403300
H       -2.65638500       0.65619000       0.74892600
H       -0.30422300       0.08952200       1.58096900
H        0.85759000       0.47312600      -1.28113200
H        0.30220900      -2.35239400       0.04088700
H        1.29690400      -2.03922700      -1.48590900
