15
Properties=species:S:1:pos:R:3 pbc="F F F"
C       -2.42647900       0.06810200      -1.05912300
C       -0.94768300       0.39269100      -0.91017900
N       -0.37904400      -0.31301800       0.22984000
C        0.93251700      -0.21926600       0.65550800
O        1.31363800      -0.88279600       1.62603700
C        1.85720500       0.72010000      -0.10739800
H       -2.84903800       0.59616200      -1.90979700
H       -2.98147000       0.36035900      -0.17012800
H       -2.57843100      -0.99822800      -1.21356000
H       -0.81718200       1.48414400      -0.79250100
H       -0.41319900       0.12520100      -1.84145800
H       -0.97782800      -0.95674800       0.73947500
H        1.48382100       1.74342300      -0.07878200
H        1.93441900       0.42836100      -1.15450700
H        2.84975400       0.70106200       0.33123500
