14
Properties=species:S:1:pos:R:3 pbc="F F F"
C        0.43661000       0.25605900       1.63340800
C       -0.59881100       0.27456600       0.54482500
C       -1.84504900       0.72975300       0.75090800
C       -0.19383400      -0.24285500      -0.80158600
C        1.11917800       0.08338300      -1.41586100
O        0.88134800      -1.18994900      -0.84831200
H        0.00938000       0.54674100       2.58971900
H        1.25529900       0.94045700       1.40368500
H        0.86975100      -0.73910700       1.72606000
H       -2.15258200       1.10850800       1.71716900
H       -2.58145200       0.72668000      -0.04431300
H       -1.02411100      -0.47750900      -1.48758400
H        1.84323900       0.71016600      -0.87877700
H        1.22112600       0.09822200      -2.50963000
