12
Properties=species:S:1:pos:R:3 pbc="F F F"
C       -2.02128300      -0.71475800       0.16005100
O       -0.59343100      -0.70048400       0.26651200
C        0.00749500       0.43315800      -0.19344100
O       -0.64765600       1.36256700      -0.66198200
C        1.49135900       0.44001100      -0.07933900
C        2.20267100      -0.56970800       0.43069200
H       -2.37237200      -1.67026500       0.55671800
H       -2.32292000      -0.61277200      -0.88875900
H       -2.45192900       0.11068200       0.73872100
H        1.99312000       1.33511300      -0.44244900
H        1.71739400      -1.46830100       0.79646800
H        3.28394700      -0.52334800       0.49528600
