12
Properties=species:S:1:pos:R:3 pbc="F F F"
C       -1.58136600      -0.16107900      -0.12117300
C       -0.06833900      -0.08413900      -0.02418600
N        0.59286800       0.94903400       0.43050000
N       -0.13293000       2.03433800       0.89603100
C        0.68060800      -1.23493300      -0.47163200
C        1.23075700      -2.23709100      -0.87664100
H       -1.97604900       0.62298200      -0.77158200
H       -2.04240000      -0.03111800       0.85907200
H       -1.89601500      -1.12021500      -0.52068200
H        0.41565900       2.89373500       0.85621700
H       -1.05343700       2.14781400       0.46522500
H        1.76271600      -3.09334300      -1.21218100
