16
Properties=species:S:1:pos:R:3 pbc="F F F"
C       -0.41313900       1.47763700       1.55003300
C       -0.44322900       0.00440000       1.15560700
C        0.17014000      -0.25027300      -0.22273600
O        1.52737800       0.14581000      -0.31589400
C       -0.23553700      -1.46994400      -1.01068300
C       -0.63628900      -0.08569100      -1.46657000
H       -0.81029400       1.62014200       2.55289800
H       -1.00729600       2.07500200       0.86233700
H        0.60455000       1.86018100       1.52869000
H       -1.47433600      -0.36148300       1.16603400
H        0.09957000      -0.58220100       1.90831700
H        2.03101300      -0.23446800       0.41616200
H       -1.01773300      -2.11346300      -0.61942500
H        0.52200000      -1.97715300      -1.59738900
H       -1.68337900       0.18715500      -1.37925700
H       -0.13479100       0.30303400      -2.34512000
