16
Properties=species:S:1:pos:R:3 pbc="F F F"
N       -2.42218200       1.79823100      -0.31155300
C       -1.18634300       1.50659100       0.42112200
C       -0.64967400       0.13999700       0.07874400
C        0.64903900      -0.14050700      -0.07811200
C        1.18654500      -1.50652400      -0.42133800
N        2.42243100      -1.79792700       0.31135900
H       -2.81871300       2.68341400      -0.00758200
H       -3.10986400       1.06446000      -0.16200500
H       -1.35038600       1.56014000       1.52286200
H       -0.44009000       2.28097000       0.19112500
H       -1.38655100      -0.65974700      -0.01210800
H        1.38566900       0.65941200       0.01299100
H        1.35092000      -1.55880400      -1.52310100
H        0.44088900      -2.28170300      -0.19232300
H        3.11011500      -1.06429000       0.16115400
H        2.81886800      -2.68331800       0.00785100
