18
Properties=species:S:1:pos:R:3 pbc="F F F"
C        0.80344900      -0.78559500       1.57819100
C        0.42857600       0.24936800       0.50629500
N       -1.03808700       0.46763200       0.52231000
C       -1.47930400       1.68584600      -0.15010800
C        0.94821800      -0.16392100      -0.89804600
N        0.27242900      -1.36655800      -1.39380100
H        1.87746200      -0.96300100       1.59112400
H        0.30718400      -1.73785100       1.39903900
H        0.50511000      -0.44007500       2.56549600
H        0.91123300       1.20775000       0.77188000
H       -1.49385800      -0.34550900       0.09956200
H       -1.03585800       2.56386500       0.32926600
H       -2.56669900       1.76966700      -0.07308400
H       -1.21701000       1.72440100      -1.22300600
H        2.05039100      -0.29602100      -0.85340600
H        0.76454200       0.65241000      -1.61023600
H        0.45637100      -2.15959300      -0.78444500
H        0.59510600      -1.59774500      -2.32973800
