10
Properties=species:S:1:pos:R:3 pbc="F F F"
C       -1.63318100      -0.03479700       0.04476700
C       -0.28486700      -0.06107800       0.07865900
C        0.44947700      -0.82031900       1.05644300
C        1.12450900      -1.43768200       1.85135400
C        0.51441300       0.72370600      -0.93201400
O        0.00371000       1.39501600      -1.79637300
H       -2.23599600      -0.58703400       0.75599300
H       -2.13552400       0.55484600      -0.71461000
H        1.68249400      -1.99264400       2.56604900
H        1.63724600       0.64572400      -0.83170000
