13
Properties=species:S:1:pos:R:3 pbc="F F F"
C       -1.62552500      -0.69485900       0.33870600
C       -0.09131900      -0.57272700       0.26496500
C        0.35557500       0.05259000      -1.04632500
C        1.23867100       1.04494100      -1.15121400
O        0.40175900       0.14838300       1.39083600
H       -2.00902500      -1.29680100      -0.48267400
H       -2.10034000       0.28347300       0.28757400
H       -1.92472900      -1.16330400       1.27329400
H        0.34448400      -1.59057600       0.33344800
H       -0.08661400      -0.37015500      -1.94946600
H        1.70366000       1.47481400      -0.27125400
H        1.52905100       1.44183300      -2.11655500
H        0.06503000       1.05398600       1.36215400
