19
Properties=species:S:1:pos:R:3 pbc="F F F"
C       -1.71181700      -0.84314700      -1.00722200
C       -0.19373200      -0.79855800      -0.88253000
C        0.35450200       0.18667500       0.21021200
N       -0.08527400       1.57981300      -0.04899600
C       -0.13210000      -0.22614400       1.61439300
C        1.89870700       0.15515800       0.16441500
H       -2.00740500      -1.52231600      -1.80418500
H       -2.11963800       0.13866100      -1.24088000
H       -2.17869100      -1.18927500      -0.08783600
H        0.23342600      -0.51350100      -1.84991500
H        0.17923600      -1.80500800      -0.66773700
H       -1.09737000       1.65131700       0.01880900
H        0.19675400       1.87105000      -0.98192200
H       -1.21490600      -0.15676600       1.69108800
H        0.29705000       0.42454200       2.37242500
H        0.15819100      -1.24941600       1.84151800
H        2.26273000       0.45736000      -0.81573100
H        2.27581600      -0.84416100       0.37007300
H        2.31836000       0.83492400       0.90165700
