23
Properties=species:S:1:pos:R:3 pbc="F F F"
C       -2.01807900       0.42821500       1.47061700
C       -0.52010100       0.43079500       1.18905600
C       -0.06876300      -0.69934200       0.23760800
C       -0.68784800      -0.60152100      -1.18105500
C       -0.47763500       0.70195700      -1.94233200
C        1.47341800      -0.87691400       0.23716000
C        2.31754600       0.37999300       0.05656300
H       -2.27523200       1.20625300       2.18675700
H       -2.33841400      -0.52599700       1.88526500
H       -2.59381000       0.60794900       0.56531000
H        0.01965400       0.32196200       2.13639200
H       -0.23019100       1.40432500       0.78239700
H       -0.46573600      -1.64145700       0.65520800
H       -1.76567600      -0.77720700      -1.09171300
H       -0.29939900      -1.43158400      -1.78214400
H       -0.83161300       1.55863600      -1.37340700
H       -1.02881800       0.67800400      -2.88078700
H        0.56954200       0.86652200      -2.18252800
H        1.74102600      -1.60262100      -0.53876500
H        1.75610800      -1.33884900       1.19038300
H        2.14782600       0.85186900      -0.90750600
H        3.37486100       0.12845100       0.11846100
H        2.10864300       1.11464600       0.83097500
