16
Properties=species:S:1:pos:R:3 pbc="F F F"
C       -1.30119300      -0.39334700      -1.81090400
C       -1.72679700       0.18138600      -0.68559800
C       -0.88888800       0.89801300       0.33850200
C        0.63420900       0.75262600       0.19764700
C        1.12943900      -0.62904900       0.52721500
C        2.09899200      -0.88691800       1.40530700
H       -1.99970900      -0.86995300      -2.48759500
H       -0.25519400      -0.40806400      -2.09191700
H       -2.79545600       0.16729300      -0.46420900
H       -1.19788200       0.56355200       1.33663100
H       -1.14771300       1.96616400       0.30205700
H        1.12448100       1.48313300       0.84902500
H        0.92724300       1.00788500      -0.82927500
H        0.65127500      -1.45335000      -0.00104200
H        2.59300800      -0.09204200       1.95233900
H        2.42538300      -1.90088200       1.60098200
