13
Properties=species:S:1:pos:R:3 pbc="F F F"
C       -2.24423900      -0.91446200       1.30116500
C       -0.72713800      -0.77483400       1.41179600
C       -0.15584100       0.16329100       0.38857000
C        0.86294100      -0.14970400      -0.43030200
C        1.40657000       0.76886400      -1.39004900
N        1.86314600       1.48939200      -2.16877100
H       -2.62605200      -1.56437300       2.08521400
H       -2.52861500      -1.34057400       0.34189200
H       -2.73185900       0.05350800       1.39556800
H       -0.25210800      -1.75723200       1.32709400
H       -0.48085700      -0.39537400       2.41306700
H       -0.60458600       1.15438300       0.32893100
H        1.32830300      -1.13501100      -0.39745000
