13
Properties=species:S:1:pos:R:3 pbc="F F F"
C       -1.73372200       0.67136700       0.29029300
N       -0.27627600       0.64265500       0.22943000
C        0.26305400      -0.61403900      -0.30758500
C        1.78479100      -0.61003900      -0.27762400
H       -2.06434000       1.61347000       0.73369100
H       -2.16183600      -0.15553700       0.88685600
H       -2.15536200       0.60021500      -0.71671800
H        0.11650100       0.81801100       1.15700500
H       -0.09048900      -0.73757700      -1.34251100
H       -0.11904500      -1.49496700       0.25319000
H        2.18404800       0.22021400      -0.85611500
H        2.18278700      -1.53322700      -0.69308600
H        2.15693500      -0.51292300       0.74117600
