14
Properties=species:S:1:pos:R:3 pbc="F F F"
O       -2.15415900      -0.54994500      -1.10003900
C       -1.26170600       0.13354800      -0.66780900
C       -0.77447200       0.07389300       0.77684700
C        0.74161500       0.01216000       0.93912400
C        1.61551900      -0.61037800      -0.10702700
C        1.66701700       0.86637000       0.12591200
H       -0.74684200       0.90091500      -1.32689100
H       -1.23513100      -0.78684700       1.27117500
H       -1.15775700       0.96609400       1.29207500
H        1.05112900      -0.15513500       1.97231400
H        1.14500700      -0.96062200      -1.02019700
H        2.46028800      -1.20719200       0.22093400
H        1.24530000       1.51773300      -0.63271000
H        2.54343700       1.27105400       0.62132200
