18
Properties=species:S:1:pos:R:3 pbc="F F F"
C       -2.17302900       0.00201300      -0.73288200
C       -0.66615800       0.01324000      -0.95972400
C        0.16680000      -1.08160900      -0.26086400
C        1.14239600       0.00165300       0.24474200
C        0.15649600       1.09206700      -0.22450500
C        1.51389500      -0.02269400       1.72244900
H       -2.62739400      -0.88029000      -1.18082600
H       -2.63990000       0.88016600      -1.17606800
H       -2.41132100      -0.00253500       0.32900500
H       -0.46276800       0.03212800      -2.04017300
H        0.59412800      -1.85115900      -0.91004400
H       -0.37438500      -1.57899300       0.54732200
H        2.06107500       0.01632400      -0.35934400
H        0.57668100       1.88669800      -0.84761400
H       -0.38956100       1.55722600       0.59946300
H        0.62592100      -0.03857500       2.35146300
H        2.09833400       0.85558900       1.99184200
H        2.10678800      -0.90460300       1.95968000
