18
Properties=species:S:1:pos:R:3 pbc="F F F"
C        1.38160100      -0.30768400       1.02165700
C        0.76961300       0.29556000      -0.25933100
C       -0.79742500       0.32076300      -0.24826900
N       -1.40240100      -1.01246000      -0.06053500
C       -1.34593100       1.28700000       0.80745000
N        1.23675200      -0.41303300      -1.47040800
H        2.46851000      -0.28511200       0.97106400
H        1.07899000      -1.34517500       1.15277600
H        1.07649000       0.24643200       1.90643200
H        1.11617500       1.34179900      -0.34306000
H       -1.11426300       0.68241100      -1.24259400
H       -1.16518000      -1.38869200       0.85390800
H       -1.07229800      -1.65647600      -0.77422800
H       -1.09296500       0.96101500       1.81498600
H       -2.42989700       1.34602100       0.74281400
H       -0.94269800       2.28805000       0.66682900
H        0.93643000      -1.38494700      -1.44817400
H        2.25309800      -0.40070400      -1.51318900
