17
Properties=species:S:1:pos:R:3 pbc="F F F"
C       -1.10857000      -0.36380500       1.84870000
N       -1.26913100      -0.29688900       0.39454500
C       -0.78139500       0.95965800      -0.21162900
C        0.75161800       1.03522500      -0.28696200
C        1.36973300      -0.02149300      -1.21495000
O        1.17892800      -1.33231200      -0.71747300
H       -1.55075100      -1.29089500       2.21862600
H       -1.59111300       0.48015100       2.37076700
H       -0.04956300      -0.35966600       2.11616200
H       -2.25718400      -0.41915100       0.15933700
H       -1.16432500       1.84183400       0.34167600
H       -1.20011800       1.01966400      -1.22599900
H        1.17602000       0.93388100       0.71662400
H        1.03215500       2.03264800      -0.64339900
H        2.45440000       0.14965500      -1.31955400
H        0.93014600       0.07283500      -2.23381100
H        0.28452000      -1.38174500      -0.33341300
