17
Properties=species:S:1:pos:R:3 pbc="F F F"
C       -0.72391300      -0.19302000       2.11590400
C       -0.68533200      -0.24596900       0.59536600
C       -0.17182300       1.00977100      -0.17536800
C       -0.34998000       0.51180300      -1.61746000
C        0.14336900      -0.73282900      -1.56318100
C        0.57070100      -0.86419400      -0.09367600
C        1.25916400       0.50304400       0.10685500
H       -1.53865900       0.44656900       2.45354300
H        0.19783900       0.18955900       2.54829200
H       -0.89547000      -1.18670100       2.52827900
H       -1.64412200      -0.64250800       0.22863800
H       -0.49285400       2.02956500       0.07668600
H       -0.77939300       1.04412200      -2.45907300
H        0.21994400      -1.47591600      -2.34925400
H        1.02688800      -1.80492700       0.24297300
H        2.04092000       0.78170600      -0.60531400
H        1.61179100       0.68689300       1.12459000
