13
Properties=species:S:1:pos:R:3 pbc="F F F"
C       -0.14584000      -0.06579100       2.99179100
C       -0.26062600      -0.02629400       1.54004800
C       -0.34020300       0.00953600       0.33181800
C       -0.48443900       0.03408300      -1.11719100
C        0.53314200       0.72640800      -1.96693300
N        0.46247500      -0.73083800      -1.94179200
H        0.24234400       0.87856900       3.37823900
H        0.52965200      -0.86354200       3.30594700
H       -1.11899300      -0.24560900       3.45178600
H       -1.52174400       0.00575800      -1.47384200
H        1.39049200       1.19723300      -1.48353500
H        0.21859200       1.19352200      -2.90204100
H        1.21012100      -1.11772000      -1.36120500
