17
Properties=species:S:1:pos:R:3 pbc="F F F"
C       -1.57208500      -1.38653500      -1.78754800
C       -1.93892800      -0.53944200      -0.81100600
C       -1.11336500      -0.00785300       0.26697000
C        0.23017300       0.23249100       0.27810700
C        0.82090100       0.76163400       1.51212900
C        2.12189800       1.01116300       1.73136600
C        1.11897200       0.00732600      -0.91304700
H       -2.29486800      -1.72333300      -2.52080600
H       -0.57357300      -1.79765800      -1.85804300
H       -2.98666800      -0.23525100      -0.77027700
H       -1.66744200       0.26456400       1.16714300
H        0.11581300       0.94620500       2.32426300
H        2.87851600       0.84313000       0.97438300
H        2.45799300       1.39155800       2.68792400
H        0.56243500       0.09703000      -1.84350400
H        1.56855900      -0.98756200      -0.89055000
H        1.93383700       0.72860700      -0.93235800
