18
Properties=species:S:1:pos:R:3 pbc="F F F"
C       -1.10987200      -0.72216900       1.95349600
O       -1.27472700       0.26495400       0.95726100
C       -0.82974000      -0.11646400      -0.34664100
C        0.71061700      -0.07212300      -0.49058000
C        1.13158000      -0.56737300      -1.87964200
C        1.24818900       1.33628500      -0.21104700
H       -1.57594100      -0.35589000       2.87393900
H       -0.04415300      -0.93171400       2.16057400
H       -1.59143800      -1.67399200       1.66264000
H       -1.29588400       0.58563800      -1.05667500
H       -1.20482400      -1.13300800      -0.58792300
H        1.14375400      -0.75607000       0.25692900
H        0.72914200       0.07287200      -2.66294200
H        0.77249700      -1.57967400      -2.05874300
H        2.21496200      -0.57239100      -1.97905200
H        0.88951000       2.04530000      -0.95515200
H        2.33636300       1.35007600      -0.23163800
H        0.91918200       1.68028600       0.76643900
