15
Properties=species:S:1:pos:R:3 pbc="F F F"
C       -0.00877000       2.54778100       0.02837000
N       -0.30808100       1.12061300      -0.02800400
C        0.70718500       0.28018100       0.60904500
C        0.45727600      -1.19089000       0.30832600
C       -0.89358500      -1.74146300       0.07107300
O        0.00266500      -1.50783000      -1.01091100
H       -0.78243700       3.10468100      -0.50421100
H        0.96842200       2.80425100      -0.41928800
H        0.00616100       2.89131100       1.06722800
H       -0.42198000       0.81557400      -0.99930100
H        0.69635700       0.44329900       1.70121800
H        1.73524700       0.54836300       0.27805900
H        1.23324600      -1.88030400       0.68310600
H       -1.76988500      -1.08313700       0.09752900
H       -1.10252000      -2.79934400       0.27809800
