19
Properties=species:S:1:pos:R:3 pbc="F F F"
C       -0.30854400      -2.44351100       0.51860900
C        0.75141600      -1.59989400       1.15182100
C        1.02951000      -0.30821200       0.88996700
C        0.34316700       0.60346100      -0.04642800
C       -0.99439600       0.56095600      -0.24641500
C       -1.76597100       1.46075000      -1.15990700
C        1.22251700       1.62664800      -0.73201000
H        0.04876100      -3.46489100       0.38876800
H       -0.60906400      -2.05552900      -0.45269400
H       -1.20249300      -2.49804400       1.14506200
H        1.38016100      -2.11108000       1.88117900
H        1.89443000       0.12435000       1.39635900
H       -1.58903900      -0.15188500       0.32044800
H       -1.11732000       2.07750000      -1.77609400
H       -2.42257300       2.12378500      -0.59170800
H       -2.40896300       0.87843000      -1.82196300
H        2.23767600       1.58834500      -0.34442500
H        0.84859000       2.64064000      -0.59218400
H        1.27365300       1.44719000      -1.80657300
