19
Properties=species:S:1:pos:R:3 pbc="F F F"
C       -2.01527200      -1.56192600       1.31515500
C       -1.19971400      -0.72030000       0.33631800
C       -0.72410200       0.56982200       0.94989800
C        0.51076600       1.09026600       0.84852500
C        1.66079300       0.53297300       0.11288500
C        1.71320700       0.19175300      -1.18601300
C        0.61084800       0.33988100      -2.18556600
H       -2.36978000      -2.47369700       0.83859900
H       -2.88231100      -1.01208700       1.67623100
H       -1.41818700      -1.84550400       2.17896000
H       -1.82323600      -0.50133500      -0.54253500
H       -0.34565300      -1.29746200      -0.02872000
H       -1.45513200       1.09873100       1.56261800
H        0.72965800       1.99520100       1.42038600
H        2.58086700       0.45037800       0.69635400
H        2.65529000      -0.19306400      -1.57781300
H       -0.22218200       0.90996400      -1.78353200
H        0.23486900      -0.63350000      -2.50860000
H        0.97663600       0.84755700      -3.07915500
