18
Properties=species:S:1:pos:R:3 pbc="F F F"
C        0.09464900      -2.04005300       0.64127900
C        0.00805600      -0.58113800       1.08994900
C        0.41703000       0.39399600      -0.00027600
C       -0.44877700       1.01434600      -0.82309900
C       -1.93920300       0.86621800      -0.84165600
C        1.89859600       0.63820200      -0.12722100
H       -0.17036900      -2.70998700       1.45724800
H        1.10212300      -2.29005500       0.31502000
H       -0.58265800      -2.23321600      -0.18769500
H        0.66136300      -0.43767400       1.95834200
H       -1.01044600      -0.37134600       1.42947200
H       -0.04358300       1.69857800      -1.56896500
H       -2.30049900       0.18112700      -0.07960600
H       -2.27532900       0.49514300      -1.81182000
H       -2.42637200       1.83133900      -0.68963400
H        2.30352400       1.07383600       0.78828300
H        2.12583000       1.31057900      -0.95136400
H        2.43430700      -0.29774600      -0.29314000
