21
Properties=species:S:1:pos:R:3 pbc="F F F"
C        0.04879500      -1.53672800      -1.40006600
C       -0.48740400      -0.80026000      -0.19829500
C       -1.55783300      -1.27906900       0.45134100
C        0.24034000       0.50065500       0.20783000
C       -0.06960000       1.59761600      -0.84447700
C       -0.21431700       1.00748200       1.59440000
C        1.77031400       0.26110400       0.25240400
H       -0.64308700      -2.31042300      -1.72391000
H        1.00057400      -2.01793100      -1.16950000
H        0.22574100      -0.86200200      -2.23732500
H       -2.04566300      -2.18636100       0.11565000
H       -1.97571900      -0.79214600       1.32200900
H       -1.13902200       1.78696400      -0.90161400
H        0.27621500       1.30589900      -1.83384900
H        0.42455500       2.53002800      -0.57858100
H       -1.26876400       1.27392200       1.59516000
H        0.35097300       1.89508600       1.87143200
H       -0.05144400       0.25384400       2.36142000
H        2.16016300      -0.00880800      -0.72624800
H        2.01916100      -0.53611000       0.94922000
H        2.28454500       1.16323800       0.57731000
