13
Properties=species:S:1:pos:R:3 pbc="F F F"
C       -1.87143700       0.53751100      -0.15786100
C       -0.33879700       0.46022700      -0.12665000
C        0.13864500       0.16606300       1.23421800
N        0.49954500      -0.05032400       2.30486300
C        0.19907400      -0.58006900      -1.14790200
O        1.60692400      -0.57949900      -1.20593100
H       -2.23681400       1.28926600       0.53765300
H       -2.31621900      -0.41736800       0.11404000
H       -2.21773500       0.79955400      -1.15591000
H        0.06748700       1.44973800      -0.40236200
H       -0.23341900      -0.35238200      -2.14623500
H       -0.12344600      -1.59365200      -0.87266800
H        1.94302700       0.31070700      -1.37193900
