21
Properties=species:S:1:pos:R:3 pbc="F F F"
C       -1.46098800      -2.39552500       0.86800300
C       -1.45914900      -1.12218500       1.70559000
C       -1.10103400       0.14403600       0.91555900
C        0.35295700       0.16975100       0.41745900
C        0.71437900       1.48807700      -0.21421200
C        1.34360800       1.68246100      -1.38129500
C        1.82129800       0.63434300      -2.33702500
H       -1.76219000      -3.25056900       1.46988400
H       -0.47399200      -2.60590700       0.46187700
H       -2.15368400      -2.31261500       0.03295300
H       -0.76214400      -1.23843900       2.54276900
H       -2.45188300      -0.98824800       2.14925700
H       -1.27349400       1.01784000       1.55429000
H       -1.78067500       0.24806800       0.06365800
H        0.52417600      -0.65441500      -0.28027100
H        1.02039200      -0.00872200       1.27304600
H        0.43614400       2.36974400       0.36491500
H        1.54507800       2.70977300      -1.68648500
H        1.49923500      -0.36417900      -2.05325700
H        2.91185600       0.63284600      -2.39323400
H        1.45475500       0.83907100      -3.34387500
