21
Properties=species:S:1:pos:R:3 pbc="F F F"
C        0.36448200       1.71490300       1.74074600
C       -0.45882500       1.06415300       0.63260200
C        0.33784000       0.06612700      -0.21686100
C        1.48849400       0.68596000      -1.00159200
C        0.53849100      -1.33127600       0.31407000
C       -0.36933100      -1.10467500      -0.86476300
C       -1.86024900      -1.34895200      -0.75528900
H       -0.25540100       2.38114100       2.33740900
H        1.18656800       2.30080300       1.33552400
H        0.78627800       0.96415400       2.40563800
H       -0.86742700       1.84660600      -0.01806800
H       -1.31693600       0.55860500       1.08435300
H        2.23438900       1.12048700      -0.33651300
H        1.13266200       1.48053800      -1.65757300
H        1.98717600      -0.05908400      -1.61782700
H        0.07300900      -1.58244300       1.26183200
H        1.49151600      -1.82056600       0.13654600
H        0.04552500      -1.41026000      -1.82760700
H       -2.23039400      -1.15659400       0.24898300
H       -2.09545700      -2.38474800      -0.99954500
H       -2.41692000      -0.71608100      -1.44662900
