14
Properties=species:S:1:pos:R:3 pbc="F F F"
C       -1.84901300       0.32300200      -0.50033500
C       -0.41139600      -0.04140000      -0.16796500
C       -0.00799800      -0.01734700       1.31207100
O        1.39749300       0.01195400       1.41695600
C        0.38498600      -0.85705100      -1.11916500
O        0.59134500       0.55379400      -1.02414000
H       -2.54174200      -0.40600100      -0.07867300
H       -2.00275300       0.35580700      -1.57601700
H       -2.10819900       1.29878300      -0.09066000
H       -0.39134200      -0.90639100       1.84380300
H       -0.45796200       0.87011100       1.80937000
H        1.72882700       0.47327600       0.62497200
H       -0.05850600      -1.18858800      -2.06604300
H        1.22150300      -1.46620300      -0.75691700
