21
Properties=species:S:1:pos:R:3 pbc="F F F"
C       -2.72525700       1.30974000       1.03375000
C       -1.20310500       1.24723500       1.02300200
C       -0.66816800      -0.02964000       0.35965000
C        0.85298800      -0.10263900       0.38953300
C        1.67653000       0.46665300      -0.73034700
C        1.63249300      -1.01972600      -0.51432900
C        0.96247000      -1.93021200      -1.52128400
H       -3.07325700       2.21692700       1.52349500
H       -3.14853100       0.45872700       1.56402100
H       -3.12511000       1.30050500       0.02165100
H       -0.82843100       1.30698800       2.05064000
H       -0.80532900       2.12363400       0.50102800
H       -1.02574500      -0.07882800      -0.67328400
H       -1.08868600      -0.90316900       0.87345000
H        1.27636600       0.02697000       1.38841600
H        2.59153200       0.99578200      -0.48097200
H        1.14778300       0.86491800      -1.59036500
H        2.53061900      -1.45216500      -0.06781000
H        0.13001700      -1.43575900      -2.01598200
H        0.58155900      -2.83298600      -1.04368800
H        1.66951100      -2.24000800      -2.29045100
