17
Properties=species:S:1:pos:R:3 pbc="F F F"
C        0.45986100      -1.44931300       0.32474600
C        0.08462100       0.03036900       0.16977000
N       -1.37510200       0.20698300      -0.00493900
C       -2.16928300      -0.10414700       1.18152300
C        0.80474100       0.66233600      -1.04013400
O        2.21303500       0.64518100      -0.87253000
H        1.54160000      -1.56061900       0.33906200
H        0.06945400      -2.03659300      -0.50346500
H        0.06356500      -1.86486200       1.24898900
H        0.43038300       0.56935900       1.08878300
H       -1.56539500       1.16976000      -0.29562900
H       -2.12248600      -1.17249100       1.40779300
H       -3.21263300       0.15754400       0.99432400
H       -1.83478600       0.44301900       2.08162100
H        0.45140800       1.70812900      -1.18122800
H        0.57597200       0.11523700      -1.96569300
H        2.44471500       1.02571300      -0.01517100
