16
Properties=species:S:1:pos:R:3 pbc="F F F"
C       -2.37719400       1.51313900      -0.25561500
C       -0.85983500       1.47470600      -0.13496400
C       -0.32034900       0.05111700      -0.02908600
O        1.10518200       0.10789300       0.08199100
C        1.77573800      -1.05799300       0.18847400
C        1.24865200      -2.29805300       0.20380700
H       -2.73443000       2.53741100      -0.33035900
H       -2.85171200       1.05632900       0.61094700
H       -2.71530100       0.97578800      -1.13982200
H       -0.54507800       2.04642700       0.74384200
H       -0.40759500       1.96883500      -1.00068000
H       -0.59730800      -0.54592700      -0.91869600
H       -0.73832800      -0.46662700       0.85493300
H        2.85608200      -0.89609500       0.26616500
H        0.18743800      -2.48428200       0.12688400
H        1.90270300      -3.15250400       0.29516200
