17
Properties=species:S:1:pos:R:3 pbc="F F F"
N        0.02710000       1.28149700       1.72573400
C        0.99053800       0.47366700       0.94584400
C       -0.14988300      -0.51493600       0.58613500
C       -1.11986100       0.51474200       1.19262000
N       -0.41780100      -0.92211200      -0.80509500
C       -0.19368300       0.03105600      -1.88883500
C        0.71890500      -1.13165500      -1.69915000
H        0.01848600       2.27436400       1.48306900
H        1.82091300       0.06813700       1.54694100
H        1.42767000       1.01645300       0.09252700
H       -0.08944200      -1.43327700       1.19790800
H       -1.81573900       0.15333500       1.96700100
H       -1.70449300       1.06870400       0.44087100
H        0.17212000       1.02936000      -1.63687800
H       -0.93692100       0.00969800      -2.68896800
H        1.72043200      -0.94405100      -1.30366100
H        0.64578700      -1.99565900      -2.36296800
