16
Properties=species:S:1:pos:R:3 pbc="F F F"
C       -2.53296500      -1.54175800       0.12890100
C       -1.05232200      -1.43188300      -0.02968000
C       -0.36712800      -0.27176900       0.01659000
C        1.07929500      -0.20074800      -0.14484200
C        1.83643800       0.91554000      -0.11654700
C        1.36048500       2.31722300       0.08709000
H       -2.78920100      -2.19105500       0.96874000
H       -2.98930300      -1.98571700      -0.75856800
H       -2.99123700      -0.56966600       0.29697800
H       -0.51039100      -2.36394400      -0.19346100
H       -0.91077100       0.65789000       0.17985900
H        1.58453200      -1.15395200      -0.30496200
H        2.91204500       0.80599900      -0.25659100
H        0.28465200       2.37507700       0.22844100
H        1.62464600       2.94190600      -0.76882800
H        1.84220600       2.76382800       0.95931700
