12
Properties=species:S:1:pos:R:3 pbc="F F F"
C       -1.41915500      -0.70214200      -1.19896200
C        0.10194200      -0.64849000      -1.07774200
C        0.56975200       0.46034400      -0.13067000
O        1.22257300       1.41628100      -0.51081500
C        0.21026800       0.34157900       1.37067700
O       -0.33505800      -0.62601100       1.84282400
H       -1.71565300      -1.50196100      -1.87413500
H       -1.81168800       0.23286300      -1.59297500
H       -1.88080100      -0.88562700      -0.23161000
H        0.55544000      -0.49215000      -2.05942600
H        0.46778300      -1.60643500      -0.69181000
H        0.50795700       1.22340300       2.01406600
