14
Properties=species:S:1:pos:R:3 pbc="F F F"
C       -1.47361000      -0.66908700       0.48785100
C        0.04088600      -0.85235600       0.38049600
C        0.74042700       0.20108900      -0.49746500
C        0.24710300       1.58275600      -0.68724200
O        0.06528900       0.59543600      -1.69440700
O        0.64221900      -0.84769600       1.68712300
H       -1.92059200      -0.60366400      -0.50111300
H       -1.72580800       0.23984500       1.03416600
H       -1.92229200      -1.50836900       1.01479300
H        0.25531900      -1.84986000      -0.04878600
H        1.81961100       0.02689900      -0.63944400
H        0.94905400       2.38577200      -0.94652500
H       -0.67351000       1.92238400      -0.19512500
H        0.22932200      -0.16933100       2.23846200
