17
Properties=species:S:1:pos:R:3 pbc="F F F"
C       -1.75367900      -1.27695000       0.80226900
C       -0.24994400      -1.03681900       0.77642600
C        0.25673800      -0.41560800      -0.54998400
C       -0.20312400       1.04010000      -0.77559700
N        0.46585100       1.94764900       0.16645400
O        1.68554900      -0.44636200      -0.57908000
H       -2.05151900      -1.76330500       1.72866300
H       -2.06166300      -1.91636400      -0.02316400
H       -2.31112500      -0.34490700       0.72482500
H        0.27006500      -1.98759500       0.92304400
H        0.03693500      -0.39924200       1.61953200
H       -0.10481600      -1.04088400      -1.39116900
H       -1.30753200       1.11067700      -0.70837900
H        0.06874200       1.34939500      -1.79344100
H        0.16696300       1.76085300       1.12111100
H        0.24658900       2.91594700      -0.05376400
H        2.00207300       0.38844400      -0.19848300
