14
Properties=species:S:1:pos:R:3 pbc="F F F"
C        0.34677600       0.37733800       1.62425700
C       -0.39865700      -0.55945700       0.66640600
C       -0.48786800      -0.02984700      -0.77392900
C       -0.50862700       1.40413100      -1.13569100
O        0.67688700       0.63393700      -1.28485400
O        0.24302400      -1.84208100       0.62949900
H        0.50596400      -0.11597100       2.57986600
H       -0.21876300       1.28991600       1.80528600
H        1.31628400       0.65463400       1.21560100
H       -1.42294000      -0.74101500       1.04833300
H       -0.92685800      -0.74142800      -1.49199900
H       -0.46811900       2.17788900      -0.35836200
H       -0.97496900       1.72502200      -2.07634200
H        1.12036600      -1.73687900       0.23419300
