12
Properties=species:S:1:pos:R:3 pbc="F F F"
C       -1.45776300       0.01763400       0.54777400
C        0.05514700       0.04152100       0.52361400
C        0.80974700      -0.77426000      -0.48159800
C        0.78578200       0.71793400      -0.59622400
H       -1.82741700      -0.82621200       1.12996700
H       -1.86374000      -0.06569200      -0.45774000
H       -1.85706700       0.92671300       0.99679400
H        0.51676500       0.12555900       1.50894400
H        0.23947200      -1.34351000      -1.20824500
H        1.73704200      -1.24408000      -0.16980500
H        0.20076200       1.15139300      -1.40062000
H        1.69670800       1.25885700      -0.36068700
