16
Properties=species:S:1:pos:R:3 pbc="F F F"
C       -1.73598600       0.24811000       1.42954900
O       -0.32186000       0.24132700       1.39399600
C        0.30803500       0.03382700       0.19623200
C       -0.34730600      -0.16856000      -0.97192500
C        0.33880200      -0.39680600      -2.29046500
C        1.80620300       0.05994000       0.34674900
H       -2.03946000       0.42754000       2.46573200
H       -2.14996600      -0.71716700       1.09750900
H       -2.14910200       1.04611100       0.79242600
H       -1.43213500      -0.17267600      -0.99545600
H        1.42097300      -0.37992800      -2.19207600
H        0.05794000       0.36601000      -3.01990400
H        0.05769100      -1.36025400      -2.72125700
H        2.07780700       0.23955000       1.38326600
H        2.25628000       0.84483600      -0.26126100
H        2.25636700      -0.88370000       0.03821300
