14
Properties=species:S:1:pos:R:3 pbc="F F F"
C       -1.27506700       1.26178500      -1.26384900
C       -1.72479100       0.58114200      -0.20933900
C       -0.91633200       0.09064400       0.96265300
C        0.60622400       0.15656300       0.80605500
C        1.15541700      -0.82751400      -0.22697300
O        2.23124200      -1.36066000      -0.12877500
H       -1.95344200       1.58520700      -2.04333600
H       -0.22966300       1.51940700      -1.38487800
H       -2.79118300       0.36212700      -0.14435900
H       -1.21720400      -0.94033800       1.18834600
H       -1.20998300       0.67303700       1.84680500
H        1.08968100      -0.03108400       1.76853200
H        0.90558400       1.16781500       0.50514500
H        0.48357100      -1.02661500      -1.11733800
