13
Properties=species:S:1:pos:R:3 pbc="F F F"
C        0.58649600       0.36997300      -0.76971400
C        0.04417500       0.38831300       0.65312800
C       -1.41038700       0.55693300       0.92639100
N       -0.47901600       1.66410300       1.14488100
C        0.76489900      -1.03726600      -1.32630300
O        0.55338700      -2.04954400      -0.70916800
H        1.55952200       0.87839800      -0.81720900
H       -0.07191400       0.93561800      -1.43844000
H        0.61990000      -0.21156800       1.36719100
H       -1.83879200       0.08055500       1.80992600
H       -2.10533800       0.69113800       0.09630700
H       -0.28204200       1.78092800       2.14109100
H        1.13358100      -1.07515400      -2.40070200
