19
Properties=species:S:1:pos:R:3 pbc="F F F"
C       -0.23009000       0.17729100      -2.43940100
C       -0.53128900       0.49639800      -0.98010400
C       -0.04917400      -0.59073400       0.00829500
C       -0.63582600      -0.35628800       1.43216200
N       -0.20669100       0.88327900       2.08750000
C        1.48019200      -0.70061700       0.04612600
H       -0.62359700       0.95466600      -3.09139500
H       -0.68183500      -0.76772300      -2.73475500
H        0.84027900       0.10434800      -2.61892000
H       -1.61289900       0.62533500      -0.85968000
H       -0.07671700       1.45789200      -0.71823700
H       -0.44615600      -1.55851400      -0.33955000
H       -1.73359500      -0.35382100       1.37048300
H       -0.35620300      -1.20212100       2.07617600
H       -0.47997900       1.69253100       1.53593100
H        0.80436800       0.89736900       2.19452900
H        1.93652000       0.24529900       0.33275800
H        1.87885200      -0.97911700      -0.92670100
H        1.79491600      -1.45539800       0.76439900
