16
Properties=species:S:1:pos:R:3 pbc="F F F"
C        0.50686400      -1.95900000       1.63372600
C       -0.39188200      -1.33850700       0.56894400
C        0.25921100      -0.15580300      -0.14125700
C        0.20994500       1.22440500       0.48836300
C       -0.57342100       0.92910400      -0.75630200
O       -0.17245400       1.50624900      -1.97750600
H        0.01221400      -2.79914100       2.11698400
H        0.76149000      -1.23091400       2.40075100
H        1.43519500      -2.32194700       1.19739600
H       -1.33165000      -1.01306400       1.02754000
H       -0.65762100      -2.10362700      -0.17035300
H        1.19428400      -0.39378600      -0.65141500
H        1.09851400       1.84222800       0.40384500
H       -0.32468000       1.32990000       1.42711500
H       -1.66309500       0.86744500      -0.68798100
H        0.79069000       1.57172300      -2.00467300
