12
Properties=species:S:1:pos:R:3 pbc="F F F"
O       -0.96065200       1.32262400      -0.98395600
C       -1.60848700       0.74776400      -0.15210500
C       -1.03325600      -0.24128100       0.87153200
O        0.38491100      -0.27447000       0.87238000
C        0.99248500      -0.70435200      -0.26756200
C        2.32881700      -0.72827500      -0.38987700
H       -2.73478200       0.89282000      -0.07462600
H       -1.45515800      -1.24873300       0.67130200
H       -1.35745100       0.04289000       1.88449900
H        0.32407400      -1.05472700      -1.06556200
H        2.96864400      -0.37858200       0.40793900
H        2.78324900      -1.08203500      -1.30287200
