16
Properties=species:S:1:pos:R:3 pbc="F F F"
C       -2.51153900      -1.19896500       0.03494700
C       -1.38321700      -0.40825600      -0.62343800
C       -0.75781300       0.59115900       0.31048100
C        0.55896200       0.81796500       0.49100400
C        1.65421500       0.11868400      -0.17134800
C        2.94807100       0.41113900       0.03376900
H       -2.96810100      -1.88309300      -0.67714800
H       -3.28777700      -0.53426400       0.40877900
H       -2.14131900      -1.78438700       0.87340500
H       -1.79142600       0.12775700      -1.49246000
H       -0.63073400      -1.09732800      -1.01736100
H       -1.46229000       1.19713700       0.88160000
H        0.85184900       1.59454700       1.19789700
H        1.39659200      -0.68062600      -0.86559200
H        3.24625300       1.20082100       0.71401000
H        3.73487700      -0.13092000      -0.47562200
