16
Properties=species:S:1:pos:R:3 pbc="F F F"
C       -0.89975400       1.03167800       1.43483800
C       -1.48361300       0.32886500       0.44343300
O       -0.92548000      -0.38701900      -0.55245300
C        0.51050000      -0.52524600      -0.72861200
C        1.17264500       0.81676600      -1.05568400
C        1.15680700      -1.27378000       0.44145300
H       -1.52929000       1.54535500       2.14684600
H        0.16786900       1.11553700       1.56481600
H       -2.57841900       0.28986900       0.37503900
H        0.59613500      -1.16954900      -1.62744000
H        1.18663600       1.49192100      -0.20526100
H        0.64549500       1.31045600      -1.86855200
H        2.20181800       0.65534000      -1.37009600
H        1.18570100      -0.67917600       1.34979800
H        2.17985200      -1.54483300       0.18752100
H        0.60853400      -2.18846600       0.65438200
