14
Properties=species:S:1:pos:R:3 pbc="F F F"
O       -1.94314300      -0.71382400      -0.88680400
C       -0.54350500      -0.53364800      -0.88691100
C       -0.10753700       0.41357200       0.20692800
C       -0.97907300       1.01445200       1.02573800
C        1.38853900       0.65493400       0.30851600
O        2.11363700      -0.56883100       0.36556700
H       -2.19731900      -1.31437700      -1.59860300
H       -0.20501300      -0.14161700      -1.87314500
H       -0.02719000      -1.51076000      -0.76031700
H       -2.04226800       0.83873800       0.92318500
H       -0.64232400       1.69164600       1.80341700
H        1.62257200       1.27961200       1.19370800
H        1.75059500       1.19840500      -0.58051700
H        1.82644100      -1.07627300       1.13654000
