17
Properties=species:S:1:pos:R:3 pbc="F F F"
C       -2.99025600       1.37209300       0.89237000
C       -2.17203100       1.13922200      -0.13345100
C       -1.45601100      -0.16706100      -0.36978400
C        0.01654000       0.01397200      -0.62165400
C        0.98189200      -0.67546200       0.01605200
C        2.40370600      -0.49987300      -0.25616900
C        3.37550600      -1.18390500       0.36702200
H       -3.49029000       2.32617700       1.00685100
H       -3.18181900       0.61730400       1.64628100
H       -1.99576100       1.92235300      -0.87166800
H       -1.90546800      -0.64625300      -1.25645100
H       -1.62061700      -0.85088500       0.46817400
H        0.29517600       0.74940100      -1.37787500
H        0.70902600      -1.40726700       0.77630700
H        2.66831400       0.23640900      -1.01576100
H        3.14621000      -1.92224200       1.12669900
H        4.41915400      -1.01891300       0.13113300
