14
Properties=species:S:1:pos:R:3 pbc="F F F"
C       -2.39254400       0.37921100      -0.13541300
C       -0.89761100       0.39287600      -0.07868400
C       -0.14773800      -0.67696900       0.21181700
C        1.35629000      -0.69069600       0.28374700
N        1.96922400       0.55649300      -0.16936400
H       -2.74955100       0.69090400      -1.11887700
H       -2.81517700       1.07808500       0.58883600
H       -2.79311700      -0.61038400       0.07346400
H       -0.41350500       1.34706700      -0.28092900
H       -0.63594800      -1.62852600       0.42581800
H        1.73047200      -1.56980400      -0.28969800
H        1.66847600      -0.87612600       1.32581200
H        1.73230600       0.74012500      -1.14104700
H        2.98108800       0.50668600      -0.08663200
