17
Properties=species:S:1:pos:R:3 pbc="F F F"
C       -1.03633600      -1.86675800       0.13805600
N       -1.42472800      -0.51519900       0.53711100
C       -0.86123200       0.54761200      -0.31708600
C        0.66039000       0.66011400      -0.27340700
C        1.39579000       0.61949200      -1.39266200
C        1.29174500       0.85105100       1.07875300
H       -1.50473100      -2.59209300       0.80797000
H        0.05408400      -2.03437000       0.16239100
H       -1.38039200      -2.06941000      -0.87950100
H       -1.16158300      -0.35194800       1.51181900
H       -1.29802200       1.50617000       0.00957400
H       -1.18916200       0.38056300      -1.35160600
H        0.93294000       0.48072000      -2.36261500
H        2.47424000       0.72135800      -1.36475200
H        0.86914100       1.71979900       1.58557100
H        2.36714900       0.98874200       0.99932800
H        1.10729600      -0.01220800       1.72012500
