15
Properties=species:S:1:pos:R:3 pbc="F F F"
C       -1.42624500      -0.05365800       1.17227600
C        0.08344000      -0.03214800       1.08264800
C        0.77806300       0.76508700       0.01225600
C        0.81916500      -0.73399300      -0.05992100
N        0.09068900      -1.39256900      -1.13157100
O       -0.02594900       1.45505600      -0.91814800
H       -1.78629300       0.74287100       1.82281500
H       -1.78584100      -1.00051500       1.57769500
H       -1.87248100       0.09043300       0.19209100
H        0.59450500      -0.06072900       2.04814400
H        1.70227200       1.30606300       0.28617100
H        1.76452900      -1.22464700       0.20165100
H       -0.55779000      -0.73220900      -1.55696900
H       -0.44229000      -2.18579200      -0.77940800
H        0.42962600       1.50033300      -1.76956600
