18
Properties=species:S:1:pos:R:3 pbc="F F F"
C        1.39341800      -0.68100100      -1.23026900
C        0.80106700      -0.00630400       0.01197600
C       -0.76415700      -0.01004800      -0.03137900
N       -1.22317900       0.63856200      -1.27772500
C       -1.38260400       0.66624700       1.21191500
N        1.33595200      -0.66069100       1.22258700
H        2.47972900      -0.62702200      -1.21291700
H        1.03823600      -0.20079200      -2.13819000
H        1.11143000      -1.73191300      -1.27317800
H        1.13687200       1.04747900       0.03330100
H       -1.11021300      -1.05942600      -0.05970100
H       -0.91854900       1.60921900      -1.30242500
H       -2.23921400       0.62551200      -1.32653700
H       -1.02888500       1.69056100       1.31823900
H       -1.13484700       0.12888600       2.12521800
H       -2.46760800       0.69569900       1.12986400
H        1.05479700      -1.63771800       1.25437900
H        1.00249400      -0.19894600       2.06445000
