17
Properties=species:S:1:pos:R:3 pbc="F F F"
C       -2.34120800      -1.56054700       0.88911900
C       -1.52982100      -1.11289000      -0.06932300
C       -0.74387500       0.16558000       0.01472300
C        0.75594700       0.00410700      -0.15831300
C        1.35787100      -1.20155200      -0.15615300
C        1.57108000       1.22080800      -0.30752400
C        1.11657800       2.48151800      -0.29436300
H       -2.90257600      -2.47865600       0.76681000
H       -2.46431400      -1.02391400       1.82279700
H       -1.43135500      -1.67961600      -0.99549300
H       -0.94150000       0.66344200       0.97211000
H       -1.10902200       0.85456600      -0.76097700
H        0.79465300      -2.11788600      -0.03381700
H        2.43254400      -1.28456100      -0.27008400
H        2.64119100       1.05162800      -0.43231600
H        0.06562400       2.71513900      -0.17076400
H        1.79532200       3.31771500      -0.40726800
