21
Properties=species:S:1:pos:R:3 pbc="F F F"
C       -1.54212500      -1.62147200      -0.84585900
C       -0.02889700      -1.45650700      -0.89778700
C        0.53143100      -0.47157500       0.15587400
C        0.03789400       0.96205400      -0.08090400
C        0.13523700       1.97998000       1.01461900
C       -1.20436400       1.46678900       0.58742300
C        2.06723000      -0.52234100       0.16214800
H       -1.87393000      -2.35046200      -1.58255100
H       -2.05014200      -0.68258100      -1.05302800
H       -1.86561400      -1.96655800       0.13427600
H        0.26729900      -1.12261500      -1.89817900
H        0.44333300      -2.43400700      -0.75027400
H        0.17783100      -0.79324700       1.14828000
H        0.21983600       1.33632500      -1.09026300
H        0.39719000       2.99928200       0.74892100
H        0.51257700       1.65739000       1.97988100
H       -1.85121700       2.13842200       0.03175800
H       -1.72656700       0.80193500       1.26808800
H        2.47278600      -0.23068100      -0.80505200
H        2.42288800      -1.52723400       0.38313400
H        2.47529500       0.15246000       0.91193100
