14
Properties=species:S:1:pos:R:3 pbc="F F F"
O        0.09439500      -0.03270400       1.98472300
C       -0.51137700      -0.01444200       0.69619000
C       -0.09580600       1.23089400      -0.14168300
C        0.33668200       0.65135000      -1.45938700
C        0.35076900      -0.68591100      -1.44645000
C       -0.07142300      -1.25020700      -0.12061800
H       -0.15864100       0.75730800       2.48022500
H       -1.61998400      -0.01752400       0.82822700
H        0.72745300       1.77623000       0.33708800
H       -0.91494400       1.95263700      -0.25542000
H        0.62369800       1.27023000      -2.30457500
H        0.65103000      -1.31144400      -2.28203400
H        0.75908900      -1.76694900       0.37381200
H       -0.87592400      -1.98896300      -0.22342400
