13
Properties=species:S:1:pos:R:3 pbc="F F F"
C       -0.81820800       0.93634700      -1.09951600
N       -1.16089900      -0.47355800      -1.26880500
C        0.23047800      -0.11156000      -0.95443000
C        0.77588500      -0.52950000       0.39554200
C        0.00974800      -0.38507200       1.64982800
O        1.06585600       0.51359100       1.33649200
H       -1.22733900       1.41686400      -0.21078300
H       -0.80916100       1.56106800      -1.99502800
H       -1.26219200      -0.70540900      -2.25957600
H        0.94285100      -0.21098000      -1.78371500
H        1.55559200      -1.30952700       0.35930800
H        0.20838500      -1.05843600       2.49432800
H       -0.99610800       0.05130600       1.63662000
