19
Properties=species:S:1:pos:R:3 pbc="F F F"
C       -2.49331800      -1.26921600      -1.09840200
C       -0.97254500      -1.18114800      -1.06895100
C       -0.45353900      -0.25729000       0.03790200
C        1.07696200      -0.16075000       0.04348300
N        1.58634500       0.64700400       1.16415200
C        1.34713600       2.08233100       1.03733800
H       -2.82809700      -1.94730300      -1.88062100
H       -2.93821800      -0.29417000      -1.28691200
H       -2.88301400      -1.63357900      -0.14997400
H       -0.60966000      -0.82737500      -2.04056500
H       -0.55268600      -2.18433700      -0.93431900
H       -0.79823400      -0.62054700       1.01120700
H       -0.88790700       0.73981300      -0.08782600
H        1.42580900       0.23354300      -0.93534800
H        1.50555000      -1.16876500       0.14069400
H        2.58965400       0.48021100       1.26819200
H        0.27668500       2.30026100       1.08061700
H        1.73522700       2.50505000       0.09262800
H        1.83229600       2.60460400       1.86494400
