17
Properties=species:S:1:pos:R:3 pbc="F F F"
C       -0.00734200       0.20716900       3.53395900
C       -0.16771200       0.23575200       2.08566500
C       -0.28890400       0.26462100       0.88084400
C       -0.47040900       0.29290100      -0.56034000
C        0.54741400       0.97477100      -1.43836900
C        0.43315200      -0.51932500      -1.45785400
C       -0.13974800      -1.22679900      -2.66628000
H        0.79757900      -0.47130700       3.82329000
H       -0.92482400      -0.13097000       4.01929900
H        0.23319100       1.19981700       3.92018400
H       -1.51247100       0.38266800      -0.87803400
H        1.41650000       1.41332400      -0.95987800
H        0.17493000       1.52725300      -2.29568000
H        1.23553300      -1.06047900      -0.95603600
H       -0.93907800      -0.64426600      -3.11964000
H       -0.54649900      -2.20066200      -2.39508000
H        0.62642800      -1.38992300      -3.42417700
