18
Properties=species:S:1:pos:R:3 pbc="F F F"
C       -1.82692000      -0.34896700      -0.09535400
N       -0.74353200      -1.34740400       0.01958700
C        0.42618800      -0.66943900       0.61849200
C        0.20438700       0.85579200       0.50225200
C       -1.16003200       1.04178100      -0.18133600
C        1.46760500       0.95668000      -0.38154200
C        1.68080200      -0.56113000      -0.27322700
H       -2.48106100      -0.39872600       0.79229300
H       -2.45530800      -0.57629000      -0.96513900
H       -0.50344800      -1.70198100      -0.90911600
H        0.63074900      -1.04737300       1.63918300
H        0.27432700       1.42257400       1.44041300
H       -1.03899600       1.34733800      -1.22598200
H       -1.76442000       1.81320600       0.30447200
H        2.27284900       1.55378200       0.05490500
H        1.28905300       1.32242200      -1.39657600
H        2.61475900      -0.85143300       0.21512900
H        1.61404000      -1.09999200      -1.22240400
