18
Properties=species:S:1:pos:R:3 pbc="F F F"
C       -2.61979200      -0.51061400       0.77540900
C       -1.11022000      -0.70303800       0.69592000
C       -0.44070600       0.34639900      -0.19537300
C        1.06300600       0.23409600      -0.33430000
C        1.80651000      -0.70517400       0.26648400
C        1.69507100       1.27650000      -1.21919300
H       -3.07383300      -1.26667900       1.41243800
H       -3.07694800      -0.58435700      -0.20952500
H       -2.86952100       0.46635000       1.18502700
H       -0.89148900      -1.70496100       0.31317700
H       -0.68488300      -0.65632400       1.70337600
H       -0.67996800       1.34973100       0.18153200
H       -0.88542800       0.30832600      -1.19877400
H        1.36942700      -1.46179100       0.90441600
H        2.88010500      -0.73416700       0.12802200
H        1.28475900       1.22833000      -2.22871400
H        2.77238500       1.14660200      -1.28204700
H        1.49218200       2.27993500      -0.84261000
