17
Properties=species:S:1:pos:R:3 pbc="F F F"
C        1.33618300       1.30980900      -1.52772900
N        0.99142000       0.63915300      -0.27594900
C       -0.44238200       0.54850100      -0.03744300
C       -1.19020200      -0.63570600      -0.57986500
C       -0.96265700      -0.50127200       0.90280400
C       -0.02379200      -1.44948300       1.61622600
H        2.42274400       1.35339700      -1.63455500
H        0.94727900       2.34283200      -1.59104700
H        0.93037200       0.75275600      -2.37617100
H        1.45091400       1.10952300       0.50840600
H       -0.99094400       1.50921400      -0.04668800
H       -0.61725400      -1.39096200      -1.10654600
H       -2.19665500      -0.48222300      -0.95796500
H       -1.84100300      -0.21778500       1.48652500
H        0.83944400      -1.67712100       0.99609000
H       -0.52326300      -2.38750100       1.85915300
H        0.33552900      -1.01729500       2.55048200
