17
Properties=species:S:1:pos:R:3 pbc="F F F"
C       -1.50213700      -0.00523400       2.56018900
C       -1.92522600      -0.78953300       1.32001000
C       -1.34090500      -0.24927600       0.03258500
C       -0.02865400      -0.13972600      -0.20938300
C        0.53293300       0.39033000      -1.51219500
C        1.99522800       0.43750000      -1.53564600
C        3.20186500       0.48042100      -1.56853600
H       -1.93020500      -0.44710500       3.45776700
H       -1.83562000       1.02831000       2.50154200
H       -0.41987400      -0.00085100       2.66949800
H       -3.01674900      -0.78809500       1.24635500
H       -1.63050200      -1.83921600       1.44680200
H       -2.04942800       0.05412400      -0.73899600
H        0.68778900      -0.44085200       0.55222000
H        0.14458000       1.40023700      -1.71178800
H        0.18835000      -0.22921700      -2.35392900
H        4.26303700       0.51576700      -1.59161200
