13
Properties=species:S:1:pos:R:3 pbc="F F F"
C       -0.75487300       0.33993000       1.54932500
C       -0.13225700       0.86691100       0.26148400
O       -0.12466600       2.05556000      -0.00936700
C        0.47829800      -0.13894100      -0.69504400
C       -0.24578400      -1.40027000      -1.06660600
N        0.87628400      -1.44802600      -0.14834000
H       -1.07765000       1.16013600       2.18371100
H       -0.03997700      -0.27627100       2.09146700
H       -1.61676300      -0.28787100       1.32438200
H        1.13125800       0.28897400      -1.46303500
H       -0.09924500      -1.80072700      -2.07192100
H       -1.22480700      -1.60636300      -0.62994400
H        1.71821700      -1.79196700      -0.61629800
