19
Properties=species:S:1:pos:R:3 pbc="F F F"
C       -1.88424800      -0.61154400       0.16129100
C       -0.34796800      -0.55972100       0.11659900
C        0.19645300       0.68469400      -0.65883200
C        1.73029400       0.69367600      -0.66312600
C       -0.34002700       0.74010200      -2.09494800
C        0.19488800      -0.60399900       1.48718000
C        0.61982300      -0.65993900       2.61708600
H       -2.30115900      -0.73085500      -0.83618700
H       -2.29547000       0.29761000       0.59453800
H       -2.21900100      -1.45166400       0.76524400
H        0.00955900      -1.46573400      -0.40468800
H       -0.14948000       1.58697000      -0.13117600
H        2.12393800      -0.18283900      -1.17461200
H        2.12341000       0.69628200       0.35033600
H        2.10730200       1.57643700      -1.17548600
H       -0.09243700      -0.16748800      -2.64252000
H        0.09819600       1.58038600      -2.62929200
H       -1.42033400       0.86279100      -2.11554400
H        1.00018600      -0.70150900       3.60788600
