16
Properties=species:S:1:pos:R:3 pbc="F F F"
C       -1.12972700      -1.24466900       1.23321000
O       -1.30903900       0.15908400       1.31183500
C       -0.79413700       0.88097100       0.18941300
C        0.74638700       0.84603400       0.11361300
O        1.25046700      -0.30672300      -0.57886000
C        1.21124700      -0.21073400      -1.98760200
H       -1.62362600      -1.69477700       2.10067100
H       -0.06328100      -1.52089500       1.24635100
H       -1.58218900      -1.65349700       0.31229900
H       -1.13507500       1.92216600       0.30974900
H       -1.24119200       0.49164600      -0.74780600
H        1.17365000       0.81987300       1.12670700
H        1.12124100       1.76363400      -0.38451200
H        1.65965500      -1.11932700      -2.40079800
H        1.77961500       0.66643600      -2.34809000
H        0.17716200      -0.12375600      -2.37017600
