15
Properties=species:S:1:pos:R:3 pbc="F F F"
N       -2.52304000      -0.02587200      -0.71645800
C       -1.09603300       0.26351800      -0.56033600
C       -0.48814900      -0.61132700       0.54040400
C        1.02042100      -0.46362600       0.69713900
C        1.74606700       0.81686300       0.55131800
O        1.79060700      -0.17311300      -0.46991500
H       -2.92808700       0.54793300      -1.45125800
H       -3.02610400       0.15224700       0.14899100
H       -0.91666100       1.33507100      -0.32726500
H       -0.58656300       0.06247700      -1.51073200
H       -0.71909300      -1.66103400       0.32730200
H       -0.97231400      -0.38978900       1.50159700
H        1.48438600      -1.22784300       1.34594600
H        2.69332000       0.97579900       1.08384200
H        1.21369200       1.73857000       0.28495800
