12
Properties=species:S:1:pos:R:3 pbc="F F F"
C       -1.35669700      -0.95969600       0.92563700
C       -0.14025200      -1.16913000       0.41829200
C        0.60306300      -0.19172100      -0.42898100
C        0.92179400       1.18894400       0.06333000
N       -0.11374000       0.98275700      -0.93881800
H       -1.84380200      -1.70324500       1.54431900
H       -1.89202700      -0.04099200       0.71845000
H        0.38065000      -2.10363300       0.63017500
H        1.34252500      -0.63893300      -1.10652500
H        1.85395200       1.65956100      -0.25959400
H        0.56557900       1.50128400       1.04575200
H        0.22185400       1.23627400      -1.87052200
