12
Properties=species:S:1:pos:R:3 pbc="F F F"
C       -0.16457500       1.70847700      -1.37882600
C       -0.55298200       1.04549700      -0.28893600
C        0.31290400       0.07426800       0.48708400
C       -0.24509000      -1.36583700       0.38765700
O       -1.31451400      -1.69183300       0.83289200
O        1.65840700       0.05029400       0.03507300
H       -0.83715800       2.38623900      -1.88939800
H        0.82799600       1.58097600      -1.79615400
H       -1.56439200       1.17407100       0.09528700
H        0.28651300       0.36746600       1.56503600
H        0.43378600      -2.10345300      -0.13343000
H        2.00055900       0.95257600      -0.02692900
