14
Properties=species:S:1:pos:R:3 pbc="F F F"
C       -1.23742400       0.83772000      -1.28304000
C       -1.52869900       0.50490500      -0.02650000
C       -0.52026200       0.28657100       1.08246500
N        0.88678400       0.45459700       0.70144500
N        1.51044400      -0.42703600      -0.15328600
C        1.04526000      -1.61859900      -0.35058900
H       -2.01873400       0.98304600      -2.01922500
H       -0.21138600       0.95715500      -1.61077600
H       -2.57160200       0.38313600       0.26929200
H       -0.66692600      -0.71122500       1.52327600
H       -0.72965000       1.00124600       1.89609000
H        1.13010100       1.42546100       0.48107800
H        1.61923600      -2.28598000      -0.99457000
H        0.11511200      -2.00934600       0.08371000
