23
Properties=species:S:1:pos:R:3 pbc="F F F"
C       -1.96193400       1.11761400      -1.53909600
C       -1.84657800      -0.31275300      -1.02385300
C       -1.17454300      -0.46736000       0.35437100
C        0.37241900      -0.59596300       0.34078100
C        1.06744000       0.77991000       0.21222900
C        2.58455100       0.70159100       0.08130500
C        0.84017400      -1.34404500       1.59846600
H       -2.54879000       1.14281700      -2.45541200
H       -0.98980900       1.55126700      -1.76042500
H       -2.45447600       1.75699400      -0.80925700
H       -1.31863400      -0.92596400      -1.76195000
H       -2.85754600      -0.72946700      -0.95588900
H       -1.58013700      -1.37325100       0.81791100
H       -1.47047400       0.36022000       1.00711500
H        0.65658200      -1.20405300      -0.53370800
H        0.80942500       1.39811500       1.07869000
H        0.67005900       1.29959400      -0.66404200
H        3.04633500       0.30251100       0.98167200
H        3.00263700       1.69125100      -0.09235300
H        2.87490800       0.06541200      -0.75255800
H        0.60090500      -0.78362700       2.50022900
H        1.91473600      -1.51009700       1.58319600
H        0.35510300      -2.31568400       1.67155900
