14
Properties=species:S:1:pos:R:3 pbc="F F F"
C       -2.42264300      -0.75069700      -0.20674900
N       -0.96294300      -0.75781100      -0.14215300
C       -0.42033200       0.12766700       0.89075100
C        1.11539900       0.10433400       0.87483300
C        1.66703800       0.59454600      -0.38829900
N        2.09602700       0.98002800      -1.38419400
H       -2.75334700      -1.40118600      -1.01847100
H       -2.84345600       0.25574900      -0.37980800
H       -2.84293400      -1.12787500       0.73000100
H       -0.57047200      -0.50690700      -1.05345100
H       -0.77272500      -0.20898200       1.87734900
H       -0.77491600       1.17393600       0.77461000
H        1.48024000      -0.91611000       1.03952800
H        1.50925300       0.72075500       1.69145000
