21
Properties=species:S:1:pos:R:3 pbc="F F F"
C       -1.32925000      -1.93263300      -1.30984500
C       -1.14160100      -0.43476400      -1.08944200
C       -0.54623000      -0.10850300       0.27487900
C        0.17431800       1.19394600       0.50986400
C        0.93995500      -0.10483700       0.53577200
C        1.95686700      -0.42869100      -0.53804700
C       -0.05272800       1.98108500       1.78343300
H       -1.77182700      -2.12970400      -2.28434700
H       -1.98432800      -2.35912800      -0.55268800
H       -0.37802000      -2.45803900      -1.25920100
H       -2.11350900       0.06552600      -1.18576500
H       -0.50807500      -0.02336700      -1.88160200
H       -1.15200300      -0.46468200       1.11121300
H        0.32963300       1.81062400      -0.37731700
H        1.22833800      -0.45611200       1.52885200
H        1.66554800      -0.01926400      -1.50255500
H        2.07823500      -1.50585000      -0.65366300
H        2.93262400      -0.01459800      -0.28342500
H       -0.19587900       1.31756500       2.63390200
H       -0.93550100       2.61582600       1.70286600
H        0.79677500       2.62757800       2.00404100
