14
Properties=species:S:1:pos:R:3 pbc="F F F"
C       -1.80315200       0.40641100       0.04746300
C       -0.46802400       0.47836600       0.73321800
C       -0.13244600       1.49004100       1.54612200
C        0.49628700      -0.65157600       0.43264600
C        1.12369500      -0.49792300      -0.96073800
O        1.01503500      -1.31146800      -1.83939800
H       -2.42493200       1.26166600       0.29854400
H       -2.33473300      -0.50186900       0.33380700
H       -1.67930700       0.37320000      -1.03548700
H       -0.82463500       2.29837600       1.74499900
H        0.83444200       1.52484100       2.03280200
H       -0.01442400      -1.61687300       0.48888500
H        1.30633500      -0.65453200       1.16988200
H        1.71881800       0.45502200      -1.11051400
