15
Properties=species:S:1:pos:R:3 pbc="F F F"
C       -1.51751600       0.29991800      -0.58235400
C       -0.03203700       0.17370200      -0.26956300
C        0.34488700       0.20958700       1.21634700
O       -0.16121900      -0.92006100       1.91654600
C        0.84345600      -0.57890700      -1.22210000
N        0.90716900       0.88308900      -1.15853100
H       -2.08651000      -0.51697400      -0.13632800
H       -1.69633200       0.28123200      -1.65537000
H       -1.92329300       1.23273500      -0.18974700
H       -0.03751900       1.14226000       1.68455200
H        1.43669300       0.20525300       1.33120000
H       -1.11954200      -0.97184600       1.80544900
H        0.39554500      -1.01779900      -2.11588700
H        1.72673800      -1.09829800      -0.84869800
H        0.41105600       1.29651300      -1.95180600
