17
Properties=species:S:1:pos:R:3 pbc="F F F"
O       -0.77656800      -1.42587700       1.93161200
C       -1.29644200      -0.19436700       1.45361500
C       -0.80071700       0.05218700       0.03250900
N        0.66537400       0.11890700       0.02086800
C        1.26606900       0.08353300      -1.32104900
C        1.03591700       1.37417700      -2.10160000
H       -1.06187500      -1.56944900       2.84295600
H       -0.98317000       0.63110100       2.12630700
H       -2.40734500      -0.21743400       1.47635100
H       -1.22667000       0.99661100      -0.34368600
H       -1.18107400      -0.74868800      -0.63646600
H        1.01974200      -0.66531500       0.57532100
H        0.88519200      -0.77485100      -1.91553100
H        2.34626900      -0.07954100      -1.19764700
H       -0.02282600       1.53915400      -2.29111400
H        1.54414500       1.33542100      -3.06295000
H        1.41357100       2.23448000      -1.55335500
