19
Properties=species:S:1:pos:R:3 pbc="F F F"
C       -2.62171000       0.53302700      -0.13823300
C       -1.11046400       0.67305200      -0.00726400
N       -0.47337100      -0.65183400       0.01451600
C        1.00947200      -0.67134100       0.06294500
C        1.66797000      -0.04117800      -1.18536700
C        1.53773700      -0.03296200       1.35284000
H       -3.10164000       1.50919900      -0.13803800
H       -3.03435500      -0.04628300       0.68478300
H       -2.88984700       0.02820500      -1.06515200
H       -0.86923600       1.20713300       0.92336600
H       -0.73087700       1.30797400      -0.83588300
H       -0.78740700      -1.19005600      -0.79663800
H        1.29364100      -1.74184000       0.07784800
H        1.48347500       1.02950300      -1.23647400
H        1.28100400      -0.49327400      -2.09661000
H        2.74534500      -0.19119800      -1.16608100
H        1.35541500       1.03950300       1.37242200
H        2.61115900      -0.18738800       1.44045900
H        1.05888500      -0.47223100       2.22485600
