19
Properties=species:S:1:pos:R:3 pbc="F F F"
C        0.98195700      -1.80696400       2.02208500
C        0.16217800      -0.93409800       1.43507500
C        0.59258400       0.39700700       0.88641700
C        0.25860900       0.60506300      -0.62037100
C       -1.23639100       0.58979300      -0.86349500
C       -1.95504300       1.66406400      -1.18933500
C        0.96919900      -0.43974700      -1.49257400
H        0.61393800      -2.74596900       2.41710300
H        2.04221000      -1.60694200       2.12518300
H       -0.89855500      -1.17212500       1.35196400
H        1.67031400       0.52574500       1.02999600
H        0.09919800       1.19301500       1.45902700
H        0.64063200       1.60142700      -0.89507400
H       -1.73487700      -0.37472000      -0.76268500
H       -1.49649100       2.63969000      -1.30485100
H       -3.02402100       1.59782300      -1.35231000
H        0.62569100      -1.44418100      -1.25473400
H        2.04507300      -0.40635000      -1.33228000
H        0.77833200      -0.25812000      -2.54815000
