15
Properties=species:S:1:pos:R:3 pbc="F F F"
C       -0.56659900       1.68966900      -0.32587900
C       -1.38087300       0.43456200      -0.05360700
C       -0.67306500      -0.87914900       0.17093900
C        0.62036700      -1.22875300       0.21972500
C        1.86148000      -0.40729000       0.06409900
H       -1.23829500       2.53029400      -0.49448800
H        0.05380200       1.58262000      -1.21248700
H        0.07272300       1.94577300       0.51572100
H       -2.08402200       0.28658800      -0.88561500
H       -2.02309600       0.61530400       0.82040600
H       -1.38478500      -1.69380100       0.32283400
H        0.82403700      -2.28577300       0.40253700
H        1.67073600       0.64791000      -0.08874600
H        2.44936700      -0.77104500      -0.78101400
H        2.49167100      -0.51210000       0.94919300
