23
Properties=species:S:1:pos:R:3 pbc="F F F"
C       -2.62599700       2.03220300      -0.19250900
C       -1.10731200       1.91388000      -0.22639400
C       -0.62170200       0.47159600      -0.03403300
C        0.90751200       0.36857300      -0.07187900
C        1.47803500      -1.06014400       0.09478600
C        1.13769800      -1.66784100       1.46172500
C        1.05338800      -1.99397100      -1.04589400
H       -2.93903600       3.06441700      -0.33607400
H       -3.02401600       1.69068100       0.76108200
H       -3.08317900       1.43147800      -0.97647500
H       -0.67433300       2.55244200       0.55133100
H       -0.73296200       2.29986300      -1.18080300
H       -1.05738700      -0.16202900      -0.81332100
H       -0.99715900       0.08748700       0.91992300
H        1.32807000       1.00555900       0.71478200
H        1.26948400       0.77907300      -1.02148900
H        2.57564800      -0.96183400       0.04472900
H        0.06849600      -1.83944600       1.56588600
H        1.45234900      -1.00950000       2.26901700
H        1.64022000      -2.62425500       1.59211200
H       -0.01759900      -2.18346700      -1.02717000
H        1.56040800      -2.95337300      -0.96463300
H        1.30125900      -1.56286800      -2.01371000
