19
Properties=species:S:1:pos:R:3 pbc="F F F"
C       -3.05223900       0.16682900      -1.63543400
C       -1.94908500       0.71306100      -1.12324200
C       -1.12584300       0.10172400      -0.02377000
C        0.34959700      -0.07833800      -0.42359500
C        1.18857900      -0.66529100       0.70322400
C        2.67351300      -0.46551000       0.71846600
C        1.81518900       0.22880100       1.72938600
H       -3.60874600       0.65801600      -2.42423900
H       -3.42864900      -0.78600100      -1.28155400
H       -1.59834900       1.67108400      -1.50948200
H       -1.55150200      -0.86231700       0.27202800
H       -1.17477700       0.74944600       0.86178500
H        0.76657800       0.88738800      -0.72775000
H        0.40706100      -0.73083500      -1.30288200
H        0.83515100      -1.63124600       1.06887000
H        3.11578400       0.13976300      -0.06624700
H        3.29867800      -1.28462500       1.05943600
H        1.68086800       1.30040000       1.62327300
H        1.85963800      -0.11872500       2.75654700
