17
Properties=species:S:1:pos:R:3 pbc="F F F"
C       -0.25750800       1.79465200      -1.13426400
C       -0.87069100       0.42823700      -0.83220500
C       -0.42695400      -0.14332200       0.49846300
C       -1.28906400      -0.31512500       1.50969600
C        1.03905200      -0.50119600       0.64959400
N        1.52230900      -1.31078800      -0.47405100
H       -0.61507500       2.16894800      -2.09164700
H        0.82746700       1.73605500      -1.18120400
H       -0.52209800       2.52148300      -0.36892700
H       -0.58913900      -0.26867600      -1.63012200
H       -1.96227300       0.50795400      -0.84846900
H       -2.33218500      -0.03873900       1.41431800
H       -0.96928500      -0.73382300       2.45693800
H        1.19682200      -1.00597600       1.62506000
H        1.63638500       0.42480200       0.68549100
H        0.99804600      -2.17972500      -0.53895000
H        2.50615900      -1.53626100      -0.35183100
