18
Properties=species:S:1:pos:R:3 pbc="F F F"
C       -0.70919700      -0.04609400       1.74770000
C       -1.05820600       0.04017000       0.27743900
C       -0.21311700       0.80149800      -0.71482500
C       -0.28926200      -0.70439900      -0.78700300
C        0.88854400      -1.60009800      -0.46819900
C        1.04778900       1.53815100      -0.31698500
H       -1.08023600       0.82711200       2.28429000
H        0.36392300      -0.10384500       1.90972000
H       -1.16239500      -0.92692800       2.20254300
H       -2.13485300       0.10334400       0.09986200
H       -0.78164600       1.32212500      -1.48964400
H       -0.90324000      -1.08826200      -1.60568800
H        1.48795400      -1.21115700       0.35069300
H        1.53959000      -1.70715900      -1.33596700
H        0.54972500      -2.59763300      -0.18816300
H        1.60536700       1.00744500       0.45022800
H        0.81074000       2.52955700       0.06936200
H        1.70575800       1.67002900      -1.17599600
