15
Properties=species:S:1:pos:R:3 pbc="F F F"
C       -1.71494000      -0.45801700       1.10452000
N       -0.26332100      -0.53396500       1.27390200
C        0.48550500      -1.37559800       0.33950200
C        0.60656700       0.11572400       0.28028400
C        0.03582500       0.91956100      -0.88441500
O        1.07268200       1.30325700      -1.77915500
H       -2.19367100      -1.20436200       1.74613500
H       -2.05324600      -0.63887400       0.07227900
H       -2.07258800       0.52762600       1.41561400
H       -0.08351100      -1.87741000      -0.44846700
H        1.28547000      -1.97518000       0.77942200
H        1.50655000       0.56057900       0.72445700
H       -0.73696900       0.33885800      -1.42930300
H       -0.44044800       1.84592400      -0.52701600
H        1.57246400       0.52452200      -2.05655000
