12
Properties=species:S:1:pos:R:3 pbc="F F F"
C       -0.72987100       0.09614500       0.98870700
C        0.65254000      -0.28604700       1.27306200
N        1.73920200      -0.59053000       1.49776900
C       -1.00155400       0.32696500      -0.49765200
C        0.05484700       0.83372300      -1.41851500
N       -0.39246900      -0.55639900      -1.49146700
H       -0.96656500       1.00266300       1.56172300
H       -1.39252800      -0.69137000       1.37172400
H       -2.04355100       0.59147800      -0.71158900
H        1.05278300       1.01828400      -1.01827800
H       -0.22736200       1.46032100      -2.26572300
H        0.29432300      -1.17759100      -1.05558500
