14
Properties=species:S:1:pos:R:3 pbc="F F F"
C       -2.33535100      -1.39172200      -0.22427100
C       -0.81885300      -1.25223000      -0.34058200
C       -0.22089000      -0.51422300       0.82299000
C        0.67169900       0.49331100       0.77885200
C        1.23184400       1.11276100      -0.44637600
O        2.07810500       1.98072100      -0.42312200
H       -2.73033200      -1.97288400      -1.05438200
H       -2.81918500      -0.41789100      -0.23426000
H       -2.61071900      -1.89276700       0.70131600
H       -0.56188100      -0.77166200      -1.28842200
H       -0.37493200      -2.25708600      -0.37408800
H       -0.54927800      -0.86385800       1.80411200
H        1.02848900       0.90975300       1.72004200
H        0.82230100       0.73324700      -1.43301900
