12
Properties=species:S:1:pos:R:3 pbc="F F F"
O       -0.37235700       0.36457800      -1.46986200
C       -0.95026200      -0.29262800      -0.43033300
O       -1.98650900      -0.91209300      -0.55587700
C       -0.20975100      -0.14792600       0.92419600
C        1.28414800      -0.15558500       0.77704100
C        2.04228400       0.94416700       0.77070300
H        0.46724100       0.77559600      -1.21295900
H       -0.53613300      -0.95629100       1.58306200
H       -0.53869800       0.79231900       1.38057900
H        1.75000400      -1.12987300       0.63644300
H        1.61409900       1.92863000       0.92182300
H        3.11590300       0.88157100       0.64732000
