15
Properties=species:S:1:pos:R:3 pbc="F F F"
O       -1.92252400      -0.52428000      -0.29250000
C       -0.53825100      -0.34276700      -0.54241000
C        0.41066600      -1.39606200       0.07217400
N        1.01895200      -0.35970000       0.94447800
C        0.13040000       0.70520900       0.37480800
C        0.86410300       1.85604100      -0.30497000
H       -2.22808000      -1.34603700      -0.69877600
H       -0.37005200      -0.17359300      -1.63190500
H        1.11866900      -1.86086800      -0.63187100
H       -0.07986700      -2.19939700       0.64289400
H        2.00863000      -0.20099900       0.74090100
H       -0.55691500       1.10095000       1.14287600
H        1.53251300       1.49637000      -1.08661900
H        1.46242300       2.41280500       0.41439500
H        0.15869800       2.54838400      -0.76085000
