14
Properties=species:S:1:pos:R:3 pbc="F F F"
C       -2.00420800       0.89577700      -1.20327800
C       -0.70677000       0.86184400      -0.87360600
C       -0.06857600      -0.06035200       0.08990900
C       -0.78199800      -0.92952700       0.84151200
C        1.40321000       0.04479000       0.18444400
C        2.21214200      -0.73460100       0.91339100
H       -2.37521200       1.61225700      -1.92585000
H       -2.72648700       0.21463400      -0.76791000
H       -0.03081000       1.56925400      -1.35623600
H       -1.86067100      -0.98698200       0.76501100
H       -0.29773700      -1.59397800       1.54626700
H        1.85122500       0.83982000      -0.41340900
H        1.83346400      -1.54692000       1.52301100
H        3.28342800      -0.57566700       0.91488600
