15
Properties=species:S:1:pos:R:3 pbc="F F F"
C       -2.22131000       0.81615700       0.90699000
C       -0.73220300       0.55454900       0.84042400
N        0.02889700       1.22815100      -0.22004400
C       -0.12244200      -0.23826000      -0.27247100
C        1.11404700      -1.09669200      -0.04957000
O        1.86830600      -1.21670600      -1.24783400
H       -2.42913500       1.76183600       1.40628900
H       -2.73137900       0.02988000       1.46287200
H       -2.65082700       0.86157000      -0.09050000
H       -0.22946000       0.49579200       1.81552900
H        0.96137100       1.48038400       0.11909900
H       -0.78365700      -0.57533700      -1.07863300
H        1.74112200      -0.65773300       0.75739900
H        0.84040700      -2.11535200       0.27065400
H        1.90427700      -0.35897400      -1.69196800
