12
Properties=species:S:1:pos:R:3 pbc="F F F"
C       -2.54041400       0.23337200       0.21223000
C       -1.27779600      -0.10730400      -0.08969700
O       -0.36558900       0.81258700      -0.50458900
C        0.93145100       0.32469600      -0.84426600
C        1.57795200      -0.38800500       0.26731300
C        2.13316700      -0.97432600       1.16568300
H       -3.24033700      -0.51888100       0.54344300
H       -2.87524800       1.25841300       0.13665500
H       -0.91676300      -1.14239400      -0.01853300
H        1.53665800       1.19840200      -1.13478300
H        0.86874800      -0.34376400      -1.72837000
H        2.60549600      -1.48307500       1.97071900
