16
Properties=species:S:1:pos:R:3 pbc="F F F"
C       -2.03766000       1.27799500       0.99456800
C       -0.92629000       0.54107200       0.95640000
C       -0.23746900       0.10662700      -0.30605400
C        1.25439400       0.50203500      -0.44931600
C        1.61732300      -0.96262800      -0.71589700
C        0.17811500      -1.38226100      -0.39749400
H       -2.48853600       1.56885600       1.93573400
H       -2.52655200       1.61164800       0.08620100
H       -0.46137700       0.22515200       1.89152800
H       -0.82474700       0.42081900      -1.17965800
H        1.69004600       0.90023700       0.46993700
H        1.47403700       1.20111800      -1.26031700
H        2.38547000      -1.38290600      -0.06160300
H        1.91220300      -1.15976700      -1.74950800
H        0.07876900      -1.92120700       0.54771900
H       -0.32978200      -1.96098200      -1.17327500
