19
Properties=species:S:1:pos:R:3 pbc="F F F"
C       -1.65086100       1.06013100       1.03189500
C       -0.13345200       1.02022900       0.91328200
C        0.40406400       0.09871400      -0.22729700
C       -0.07186100      -1.29213000      -0.01695700
C       -0.44360100      -2.42962000       0.14976500
C       -0.07334900       0.59884200      -1.61133700
C        1.95238000       0.10835600      -0.18840000
H       -1.94845700       1.67007500       1.88242200
H       -2.05669300       0.06153000       1.17458500
H       -2.11057700       1.48535300       0.14228800
H        0.29222300       0.67979700       1.86254500
H        0.24928900       2.03311600       0.74823300
H       -0.77462900      -3.42818300       0.29627200
H       -1.15575700       0.55064800      -1.69729800
H        0.35401600      -0.00853900      -2.40588200
H        0.23563400       1.63032700      -1.76925600
H        2.32122900      -0.24640700       0.77126300
H        2.33065300       1.11676600      -0.34523400
H        2.36314700      -0.53161700      -0.96564100
