18
Properties=species:S:1:pos:R:3 pbc="F F F"
C       -2.56139300      -0.53894500       0.98879200
C       -1.03957100      -0.56101300       0.91987000
C       -0.46205200       0.72438000       0.31377700
C        1.07293900       0.77793500       0.31521900
C        1.75372600      -0.26393800      -0.58643800
O        1.45796600      -0.05959000      -1.95788000
H       -2.94224600      -1.45885000       1.42695600
H       -2.99782300      -0.43372000      -0.00259400
H       -2.91309700       0.29259000       1.59627200
H       -0.71567100      -1.42654700       0.33258600
H       -0.63100900      -0.70271800       1.92588100
H       -0.84242200       1.58390100       0.87567900
H       -0.83732500       0.84610900      -0.70963100
H        1.43715400       0.64730100       1.34050700
H        1.38936100       1.77745200      -0.00032100
H        1.45944400      -1.29124200      -0.28185900
H        2.84673600      -0.19711600      -0.47447400
H        0.50128300       0.00904700      -2.07327400
