19
Properties=species:S:1:pos:R:3 pbc="F F F"
C       -1.49654800       0.66287900       0.21478900
C        0.03210200       0.59531200       0.29555400
C        0.53777800       0.42036900       1.74699700
C        0.11687200      -0.87404600       2.43272600
C        0.59656300      -0.50616600      -0.63650100
C        0.33849200      -0.24196100      -2.05190900
C        0.13665800      -0.02820500      -3.22405700
H       -1.88281300       1.45171300       0.85742000
H       -1.95241800      -0.27559900       0.52400300
H       -1.81524800       0.86793500      -0.80458800
H        0.42752700       1.56016100      -0.06009700
H        0.18182400       1.26896100       2.34066200
H        1.63167500       0.48462400       1.74663100
H       -0.96592000      -0.96272100       2.48329200
H        0.50089100      -0.90391500       3.45017600
H        0.50037300      -1.74710600       1.90871700
H        0.16509600      -1.48021600      -0.37269400
H        1.68077100      -0.59347200      -0.48557700
H       -0.04325600       0.16054600      -4.25354500
