21
Properties=species:S:1:pos:R:3 pbc="F F F"
C       -1.12586400      -0.59993000       1.41009100
C        0.29251600      -0.06028200       1.19365100
C        0.40983300       0.73239600      -0.13467900
C        0.12368400      -0.10772500      -1.36674300
C        0.96874600      -1.06501100      -1.77579600
C       -1.14553500       0.19453300      -2.11441000
C        0.73701400       0.80721400       2.37786300
H       -1.41712400      -1.26089200       0.59715300
H       -1.85063700       0.21039200       1.46221400
H       -1.18607300      -1.16143900       2.34037200
H        0.97587300      -0.92158500       1.12779300
H        1.42465400       1.14099700      -0.19993600
H       -0.26977200       1.58955800      -0.10502400
H        1.88466200      -1.27336400      -1.23695900
H        0.76001000      -1.65972700      -2.65618400
H       -1.14425100       1.22479400      -2.47398200
H       -2.01495200       0.08873000      -1.46430500
H       -1.27381000      -0.46502800      -2.96916000
H        0.09732100       1.68105100       2.48670200
H        1.75918400       1.15572300       2.24388900
H        0.69255100       0.24362300       3.30757200
