11
Properties=species:S:1:pos:R:3 pbc="F F F"
O       -0.24271500       0.80191300      -2.13980500
C       -1.30117400       0.47553300      -1.26879400
C       -0.78425200      -0.01772500       0.04816300
C        0.52317500      -0.12597600       0.33673500
C        1.01057000      -0.59964500       1.60013600
N        1.43146600      -0.97771800       2.60731800
H       -0.59001900       1.11825700      -2.98328400
H       -1.95813700      -0.29899900      -1.72664400
H       -1.95838800       1.36007900      -1.10523600
H       -1.53329300      -0.29513800       0.78887700
H        1.27138500       0.15140800      -0.40395000
