17
Properties=species:S:1:pos:R:3 pbc="F F F"
C       -2.14461000      -0.35691300      -0.00153300
C       -0.65105800      -0.43211000       0.00037400
C        0.11017700      -1.55315100       0.00434600
C        1.56267200      -1.18181400       0.00511900
C        1.52454000       0.31693000       0.00101000
C        0.23859000       0.74419500      -0.00173600
C       -0.24068500       2.16076600      -0.00627800
H       -2.59027100      -1.34890500      -0.00007500
H       -2.50983300       0.17896600      -0.87931600
H       -2.51187200       0.18240600       0.87329900
H       -0.25576100      -2.57400200       0.00667500
H        2.09405500      -1.58530400      -0.86769300
H        2.09190900      -1.58057700       0.88139900
H        2.40731400       0.94685800       0.00039300
H        0.59225500       2.85997200      -0.00644600
H       -0.85950700       2.36881900       0.86826200
H       -0.85605500       2.36434900      -0.88431100
