23
Properties=species:S:1:pos:R:3 pbc="F F F"
C       -1.77488800       1.03376900       0.12754200
C       -0.24123900       0.93929700       0.12778700
C        0.29004300      -0.54556000       0.19030600
C       -0.18210200      -1.37649600      -1.02296300
C        1.83788000      -0.54481800       0.22554800
C       -0.21436400      -1.22062200       1.48924300
C        0.32180900       1.73660900      -1.05890400
H       -2.20891300       0.54920700       0.99860900
H       -2.20367300       0.57718000      -0.76180400
H       -2.08433600       2.07704700       0.14175700
H        0.11514700       1.43139700       1.04782800
H        0.16230500      -0.94109000      -1.95809100
H       -1.26686400      -1.44316100      -1.05885700
H        0.21054600      -2.38951900      -0.96370600
H        2.26045200      -0.18981400      -0.71124700
H        2.21316700      -1.55220700       0.39405000
H        2.21013000       0.08906700       1.02786900
H       -1.29459500      -1.34448600       1.48461200
H        0.05543500      -0.63252300       2.36418100
H        0.22924500      -2.20791900       1.60066200
H        0.03592200       1.29415000      -2.01069600
H        1.40683200       1.79538700      -1.02568800
H       -0.06362300       2.75421100      -1.04082900
