19
Properties=species:S:1:pos:R:3 pbc="F F F"
C       -1.95298400      -2.58477300      -0.33427100
C       -1.18943300      -1.69372700      -0.96711000
C       -0.60601800      -0.46210700      -0.32779700
C        0.91566600      -0.40119700      -0.51566300
C        1.69515900       0.70993800       0.14323200
C        1.33669200       1.83195100       0.78421900
C       -0.01417100       2.40036300       1.08740500
H       -2.35432000      -3.44839100      -0.85038200
H       -2.19739300      -2.47604400       0.71618900
H       -0.96171100      -1.83990900      -2.02399700
H       -0.86149900      -0.44043800       0.73515200
H       -1.06696000       0.41924200      -0.79190200
H        1.13739100      -0.37704500      -1.59309400
H        1.34762500      -1.34870300      -0.16669600
H        2.77159500       0.54392000       0.05910600
H        2.15565800       2.45063900       1.15613800
H       -0.83526400       1.82442000       0.67773000
H       -0.08668800       3.41598200       0.69453400
H       -0.15790300       2.47364300       2.16713800
