17
Properties=species:S:1:pos:R:3 pbc="F F F"
C       -1.43002400       0.78155100       0.48915700
C        0.10704200       0.79706400       0.36474000
N        0.75684600      -0.50581300       0.05627700
C        0.24734200      -1.73907600       0.64593800
C        0.09525200      -1.47227000      -0.81349400
C        0.55281800       1.82472500      -0.68642800
H       -1.76658300       0.08085800       1.24997900
H       -1.91063700       0.51955500      -0.45101700
H       -1.78287900       1.77062200       0.77333900
H        0.51344200       1.11702700       1.34472900
H       -0.64017400      -1.69112100       1.28124600
H        1.01033900      -2.44045500       0.99259300
H       -0.89921800      -1.23562900      -1.19821700
H        0.74554500      -1.98224800      -1.52851100
H        0.19290900       1.55108200      -1.67638300
H        1.63780100       1.88473700      -0.73095900
H        0.16695900       2.81429700      -0.45020900
