18
Properties=species:S:1:pos:R:3 pbc="F F F"
C       -1.34816200      -1.87164400      -0.87560800
C       -1.67119600      -0.67488300       0.01065200
C       -1.05901100       0.64607900      -0.47941500
C        0.47467300       0.70317000      -0.45598000
C        1.07587500       0.62002500       0.95316300
O        2.48495500       0.79443400       0.91941700
H       -1.84604800      -2.76631600      -0.50785000
H       -0.27923100      -2.07235300      -0.89970100
H       -1.67787800      -1.70053500      -1.89832900
H       -1.34347700      -0.87978000       1.03515700
H       -2.75849400      -0.55223600       0.05882100
H       -1.45438400       1.46382300       0.13391400
H       -1.40200900       0.83748700      -1.50191200
H        0.79723700       1.64091000      -0.92037900
H        0.88811300      -0.10055600      -1.07671300
H        0.82796400      -0.35410300       1.42503400
H        0.66294600       1.40858300       1.59985000
H        2.87254800       0.18311600       0.27989900
