21
Properties=species:S:1:pos:R:3 pbc="F F F"
C       -1.45239400       2.12862000      -1.57331800
C       -1.47280600       1.71691300      -0.10583900
C       -0.80497300       0.36221500       0.17208000
C        0.71111900       0.37952700      -0.04872500
C        1.44221100      -0.92006400       0.27916900
C        1.08755500      -1.78463500       1.45053900
C        0.84335800      -2.27549700       0.05726300
H       -1.98040900       3.06947600      -1.71525600
H       -1.93311600       1.37699100      -2.19644000
H       -0.43506000       2.26021600      -1.93584300
H       -2.51321600       1.66978800       0.23426500
H       -0.98873200       2.49358500       0.49622800
H       -1.26419700      -0.40329200      -0.46206400
H       -1.01920300       0.07572900       1.20740900
H        1.14966000       1.18749500       0.55121500
H        0.92127300       0.64006600      -1.09335600
H        2.51267000      -0.85549000       0.06984400
H        0.22348100      -1.51932200       2.05060200
H        1.89900200      -2.23662200       2.01243100
H       -0.18520400      -2.34056200      -0.28140400
H        1.48863400      -3.06053900      -0.32464200
