12
Properties=species:S:1:pos:R:3 pbc="F F F"
O        0.89125700      -0.57960100      -1.59123000
C        0.38953900      -0.46861000      -0.26053000
C       -1.08604800      -0.49150500      -0.27519400
C       -2.29042700      -0.48166700      -0.17898500
C        0.91902000       0.83173100       0.40423300
O        0.48849100       0.92143700       1.74896000
H        1.85370900      -0.66793400      -1.57728900
H        0.73904600      -1.34482900       0.33567400
H       -3.35326500      -0.50103100      -0.17203700
H        0.58845700       1.71775800      -0.17170300
H        2.01989400       0.82838100       0.40448000
H       -0.47832500       0.89327300       1.78189200
