12
Properties=species:S:1:pos:R:3 pbc="F F F"
C       -0.53005500      -1.09361500      -1.17847400
N        0.86919000      -1.10152700      -0.77439700
N        1.44283100      -0.09142100      -0.06415200
C        0.75698900       0.76707200       0.64716700
C       -0.66515100       0.89189100       0.83492600
C       -1.81190800       1.15739500       1.14225000
H       -0.67367700      -1.87793800      -1.92326400
H       -0.82865500      -0.13258200      -1.62073700
H       -1.19284100      -1.30116500      -0.33286900
H        1.50679800      -1.49163900      -1.47361600
H        1.34915200       1.50470100       1.20465600
H       -2.84417100       1.31279800       1.34045400
