16
Properties=species:S:1:pos:R:3 pbc="F F F"
C        0.35550400       1.33777700       0.29158500
C        1.34165800       0.33098600      -0.30187800
C        1.00997600      -1.09572800       0.14234700
C       -0.46340900      -1.38969000       0.06678800
C       -1.39748700      -0.44009700      -0.05551500
C       -1.07914100       1.02757300      -0.14224500
H        0.62631700       2.35604100      -0.00927800
H        0.42051700       1.30712600       1.38453500
H        2.36639900       0.58603000      -0.00918800
H        1.30514900       0.38995800      -1.39497300
H        1.35685000      -1.25760100       1.17362500
H        1.56420600      -1.81921100      -0.46926300
H       -0.76133800      -2.43604900       0.13205400
H       -2.44926600      -0.72021200      -0.11037300
H       -1.78950000       1.59693900       0.47053900
H       -1.24194400       1.37205200      -1.17417200
