10
Properties=species:S:1:pos:R:3 pbc="F F F"
C       -2.23507000      -0.32724200       0.57588500
C       -0.73872300      -0.31292400       0.55065800
C       -0.01485500       0.24706800      -0.43468000
C        1.41990500       0.25194000      -0.44335400
N        2.57436600       0.26997400      -0.47519100
H       -2.60599800      -0.83164700       1.46358200
H       -2.64198800      -0.83971400      -0.29670700
H       -2.64199600       0.68468000       0.56944000
H       -0.22095900      -0.78608400       1.38319700
H       -0.49716100       0.72989300      -1.28424000
