19
Properties=species:S:1:pos:R:3 pbc="F F F"
C       -3.24687600      -0.11052900       0.67849000
C       -1.76575100      -0.28372800       0.77383000
C       -0.89741100       0.15746400      -0.15681800
C        0.56415900       0.00847600      -0.10738100
C        1.30005300       0.52010400      -1.12491600
C        2.78619100       0.49462800      -1.28402200
C        1.15857500      -0.70467700       1.07888200
H       -3.63100100       0.45132400       1.53249800
H       -3.75434900      -1.07756600       0.68674200
H       -3.53143000       0.41518100      -0.23015900
H       -1.39912600      -0.80171500       1.65926700
H       -1.29151800       0.67454400      -1.03277200
H        0.76107200       1.02356300      -1.92843100
H        3.28031700      -0.13776800      -0.55115900
H        3.20273100       1.50092300      -1.19097200
H        3.05846900       0.13663100      -2.27834200
H        0.73980500      -1.70664100       1.17868000
H        0.93347600      -0.17075000       2.00313100
H        2.23791100      -0.79815800       1.00312900
