17
Properties=species:S:1:pos:R:3 pbc="F F F"
C       -1.76761500       0.12893300      -0.91142600
C       -0.31346200      -0.18108500      -0.50153100
C        0.58053300      -0.12704300      -1.67472400
C        1.31348400      -0.09275400      -2.63455500
C        0.16417700       0.78052800       0.57718700
C        0.36871300       0.49443400       1.86933900
C        0.19262800      -0.82724000       2.54805400
H       -2.10608200      -0.56060000      -1.68173700
H       -1.85617800       1.14071800      -1.30033300
H       -2.43071500       0.03611100      -0.05410700
H       -0.28219500      -1.21267700      -0.11234800
H        1.95990900      -0.06078600      -3.47675600
H        0.33658700       1.80329200       0.24377600
H        0.69993100       1.30348100       2.52147400
H       -0.08250700      -1.61990800       1.85701100
H       -0.58227600      -0.76288000       3.31405500
H        1.11277700      -1.12138700       3.05489900
