12
Properties=species:S:1:pos:R:3 pbc="F F F"
C       -2.21112000       0.48348600      -0.09301100
C       -0.70871100       0.63870500      -0.05485200
O       -0.10809000       1.70157000      -0.09081800
O       -0.05011400      -0.56440500       0.02764000
C        1.32705000      -0.54167900       0.06865800
C        2.02972900      -1.67681500       0.14863600
H       -2.69470900       1.45278900      -0.16811900
H       -2.56777900      -0.01671600       0.80670400
H       -2.51283300      -0.12602500      -0.94383600
H        1.77093500       0.45751600       0.03048200
H        1.53904600      -2.64029200       0.18377000
H        3.10928900      -1.64677100       0.17982900
