15
Properties=species:S:1:pos:R:3 pbc="F F F"
C       -0.96656300       1.07620400      -0.87951800
C       -1.33647800      -0.30469200      -1.31820800
C        0.09073800       0.02262500      -0.98538300
C        0.75871800      -0.57260600       0.23652300
C        0.18991000      -0.48556200       1.61027300
N        1.33894400       0.33675400       1.23251500
H       -1.27620000       1.39738300       0.10932000
H       -0.97155500       1.86297400      -1.62732300
H       -1.60088600      -0.45681200      -2.36010300
H       -1.89288400      -0.92275600      -0.62036900
H        0.76032300       0.11470200      -1.84387100
H        1.35423900      -1.47157200       0.02052000
H        0.37041700      -1.30938400       2.30490600
H       -0.73731100       0.06070100       1.78800100
H        2.20330400      -0.04832800       1.61918300
