12
Properties=species:S:1:pos:R:3 pbc="F F F"
C       -0.55192700      -2.04650000      -0.92249700
C       -1.10642900      -0.90994300      -0.48888000
C       -0.37941600       0.27101000       0.08224100
O       -1.01982300       1.25124500       0.45048100
C        1.11639200       0.24550300       0.19848100
C        1.78972800       1.28256100       0.70643600
H       -1.16121500      -2.85044500      -1.32095600
H        0.51916800      -2.21835600      -0.89806200
H       -2.18896700      -0.79749900      -0.53952000
H        1.65507500      -0.63869800      -0.13923900
H        1.25415900       2.16432500       1.04369400
H        2.87027100       1.27493100       0.79555300
