13
Properties=species:S:1:pos:R:3 pbc="F F F"
C        1.24936600       0.01189000      -0.31752100
C        0.00822500      -0.44461600      -1.08082800
C       -1.15079500      -1.10644600      -0.41814800
N       -1.26857000       0.25490900      -0.94072200
C        1.05313300       0.53782200       1.09990900
O        0.00012900       0.80507300       1.61964900
H        1.98176900      -0.80588500      -0.27531700
H        1.75507500       0.80909200      -0.88172800
H        0.23491400      -0.74554800      -2.11206900
H       -1.14279900      -1.22408000       0.66566200
H       -1.71302000      -1.86776200      -0.96200600
H       -1.22633200       0.92598200      -0.16793200
H        2.02976800       0.69135700       1.66077100
