17
Properties=species:S:1:pos:R:3 pbc="F F F"
C       -2.48777000      -1.06342600      -0.24394700
N       -1.02986700      -1.02215100      -0.29582300
C       -0.49428400       0.28112000      -0.71019700
C        1.03850000       0.25975800      -0.73683700
C        1.65794600       0.15936700       0.66502800
O        1.43456700       1.33841500       1.42270000
H       -2.81611000      -2.06367200       0.04778400
H       -2.96539200      -0.81594400      -1.20999700
H       -2.85783500      -0.35080100       0.49802400
H       -0.68271600      -1.75435400      -0.92002800
H       -0.84143900       1.04822800      -0.00408100
H       -0.87662800       0.58074300      -1.71134300
H        1.40574000       1.16790200      -1.23001300
H        1.38459600      -0.58305700      -1.34675000
H        2.74997800      -0.03256600       0.57854700
H        1.21960900      -0.67849700       1.22408800
H        1.72638400       2.10884300       0.91865300
