16
Properties=species:S:1:pos:R:3 pbc="F F F"
C       -1.30227700      -0.81253800      -0.81692200
C       -1.31045200       0.24432000       0.25986300
C       -0.53323600      -1.01948000       0.46300100
C        0.93758800      -0.62301100       0.52026100
C        0.98807500       0.86386300       0.34954400
N       -0.37692800       1.37307300       0.17678600
C        1.58939600      -0.03297600      -0.70427800
H       -0.76871800      -0.63761000      -1.74446600
H       -2.21034100      -1.39770500      -0.93191500
H       -2.25356100       0.44202400       0.78356000
H       -0.87462600      -1.79497900       1.14904100
H        1.57122400      -1.13583100       1.24416100
H        1.66381300       1.49775400       0.93641800
H       -0.48675700       1.90616700      -0.69006100
H        2.67405200      -0.08113400      -0.74181500
H        1.10884100      -0.13126900      -1.67124000
