19
Properties=species:S:1:pos:R:3 pbc="F F F"
C       -2.74445600       1.43776400       0.73308000
C       -1.80477700       0.56243500       0.37453500
C       -1.34642700       0.34130500      -1.03996200
C        0.18502900       0.43184900      -1.19752700
C        0.92194200      -0.66129600      -0.47088900
C        1.91304100      -0.44748000       0.40342000
C        2.66250200      -1.53359000       1.10860800
H       -3.04341000       1.55016700       1.76809000
H       -3.24025300       2.06678100       0.00244700
H       -1.32242900      -0.05128500       1.13546200
H       -1.82600200       1.06539400      -1.70647100
H       -1.67419000      -0.65416200      -1.37014300
H        0.53704000       1.41077900      -0.85808100
H        0.41908700       0.37035400      -2.26981800
H        0.62028400      -1.68429600      -0.69838400
H        2.21312900       0.57501500       0.63335900
H        2.30668200      -2.51911700       0.81712200
H        2.55919300      -1.43928300       2.19098300
H        3.72974500      -1.47626400       0.88784500
