19
Properties=species:S:1:pos:R:3 pbc="F F F"
C        0.12950700      -3.11108200       0.21679600
C        0.51469900      -2.26102700      -0.95313600
C        0.14269100      -0.99644800      -1.19240900
C       -0.76439600      -0.14169400      -0.34154800
C       -0.25135500       1.26834700      -0.18696300
C       -0.14192200       1.90174400       0.98690500
C        0.34719600       3.30735900       1.14215300
H       -0.44480800      -3.97959300      -0.11161800
H       -0.46783300      -2.56921800       0.94536200
H        1.01821700      -3.49353500       0.72131700
H        1.16904800      -2.74522700      -1.67876300
H        0.51413300      -0.51759100      -2.09916600
H       -0.92767500      -0.59345000       0.64095800
H       -1.75411300      -0.10004700      -0.82858600
H        0.03358200       1.78474200      -1.10422000
H       -0.42135100       1.38353700       1.90457400
H        0.60930200       3.74734800       0.18270000
H        1.22669300       3.34470800       1.78719400
H       -0.41371700       3.93513600       1.60946600
