17
Properties=species:S:1:pos:R:3 pbc="F F F"
C       -0.77472600      -1.67512300      -1.68667100
C       -1.26498800      -1.75663600      -0.24695200
C       -0.82107600      -0.55981400       0.61020000
C        0.66794100      -0.48772800       0.79656900
C        1.41112600       0.62708600       0.66587700
C        0.89643600       1.91442100       0.30797400
C        0.52897500       3.03208900       0.01231300
H       -1.11118300      -2.53698800      -2.25940700
H        0.31191900      -1.64597000      -1.72723500
H       -1.14947600      -0.77865600      -2.17605400
H       -0.90322000      -2.68364500       0.21134500
H       -2.35867500      -1.81281900      -0.23700600
H       -1.29576400      -0.64877100       1.59832000
H       -1.18655400       0.37367700       0.17310500
H        1.17002700      -1.41455600       1.07465800
H        2.48766100       0.58446000       0.83844700
H        0.17313800       3.99750100      -0.25202700
