17
Properties=species:S:1:pos:R:3 pbc="F F F"
C       -1.04388400      -1.98352900      -0.90840700
N       -1.35477400      -0.79772400      -0.11808600
C       -0.80031800       0.46232500      -0.63184300
C        0.74589700       0.54569400      -0.65050000
C        1.38245400       0.42159200       0.74001300
O        0.91246500       1.42136800       1.63107400
H       -1.56415500      -2.84877100      -0.48868600
H        0.03392900      -2.22808900      -0.94296900
H       -1.38378400      -1.84724200      -1.93857900
H       -1.07186400      -0.93267800       0.85482600
H       -1.19156100       1.28123400      -0.01161300
H       -1.17713000       0.62317200      -1.65253900
H        1.03716800       1.50381600      -1.09822900
H        1.15451900      -0.23386800      -1.30184400
H        2.48896500       0.48295700       0.65064700
H        1.15000200      -0.55457700       1.19151400
H        1.00270800       2.29068500       1.21990000
