16
Properties=species:S:1:pos:R:3 pbc="F F F"
O       -0.98948900       0.76326900       1.97417900
C       -1.39401800       0.79909300       0.61693300
C       -0.83314800      -0.41370500      -0.12554000
C        0.68882100      -0.41715200      -0.16998100
C        1.41140600      -1.23653100      -1.19438900
C        1.41651200       0.25828600      -1.29169600
H       -1.32992900       1.53825800       2.43849700
H       -1.04772300       1.74257600       0.14269500
H       -2.50473700       0.80614300       0.55292400
H       -1.23690400      -0.43043400      -1.14395500
H       -1.18761900      -1.32562000       0.36861600
H        1.15747600      -0.35222600       0.81175200
H        0.82164400      -1.78569500      -1.92157200
H        2.33341700      -1.72934900      -0.90262300
H        0.83073300       0.71180300      -2.08532800
H        2.34212500       0.77844300      -1.06639900
