17
Properties=species:S:1:pos:R:3 pbc="F F F"
C       -2.38024900       0.30393900      -0.13204600
C       -0.87257100       0.28309600      -0.13307200
C       -0.16263500      -0.28012200       0.86955600
C        1.33952200      -0.32304100       0.94699900
C        1.87429300      -1.71204600       1.28834300
C       -0.23484800       0.90293800      -1.26850300
C        0.24328600       1.43941600      -2.24522700
H       -2.77719100      -0.17801500       0.75858800
H       -2.77806000      -0.21082100      -1.00726800
H       -2.75649800       1.32698500      -0.16570900
H       -0.70718100      -0.73232200       1.69831700
H        1.67895400       0.38218000       1.71959700
H        1.77103800       0.02221800       0.00328000
H        1.46967400      -2.06486700       2.23499800
H        2.95902100      -1.69671200       1.37059600
H        1.60587800      -2.43448800       0.52100200
H        0.69357800       1.90075600      -3.08970200
