14
Properties=species:S:1:pos:R:3 pbc="F F F"
O        0.65810400      -0.64376200       1.37564800
C       -0.04964700       0.14082700       0.42086400
C       -1.47597800      -0.34853200       0.30627000
C       -2.43255800       0.27660000      -0.38164700
C        0.72536400       0.06163700      -0.91889000
O        2.09797900       0.36112400      -0.68293600
H        1.59517400      -0.64105800       1.11902000
H       -0.04837500       1.20923300       0.75608400
H       -1.70232000      -1.27789600       0.82595800
H       -2.24433000       1.20752300      -0.90609200
H       -3.43822200      -0.12156000      -0.43426900
H        0.30277800       0.75860700      -1.66770300
H        0.68398400      -0.95290300      -1.33656500
H        2.19957000       1.29596800      -0.45771600
