18
Properties=species:S:1:pos:R:3 pbc="F F F"
C       -2.43118800      -1.51130100      -0.61022100
N       -0.97487400      -1.45298100      -0.53484700
C       -0.47052600      -0.24767400       0.14077200
C        1.05977400      -0.21821800       0.11978200
C        1.64387400       1.00911900       0.82465200
N        1.23779200       2.25359600       0.16594000
H       -2.73549300      -2.41229400      -1.14814100
H       -2.87685800      -0.64005300      -1.12480000
H       -2.85979400      -1.55185300       0.39522400
H       -0.57572100      -1.51379600      -1.47449700
H       -0.83103900      -0.24690500       1.18095700
H       -0.86703300       0.67869700      -0.32311000
H        1.41068900      -0.24230900      -0.91951200
H        1.45093500      -1.12383100       0.59536900
H        2.74997000       0.90935700       0.86610400
H        1.30069300       1.03883400       1.86946200
H        1.52199600       2.25225800      -0.81033200
H        1.65962400       3.05603400       0.62571400
