19
Properties=species:S:1:pos:R:3 pbc="F F F"
C       -0.30956900      -1.68043200       0.98743500
N       -0.54028600      -0.62649800      -0.00294300
C       -0.03327400       0.70817900       0.43077600
C        1.50575400       0.83295400       0.38901100
C       -0.69957800       1.83492000      -0.37364900
C       -0.13813200      -1.03716400      -1.35038100
H       -0.69935200      -1.37084500       1.96127600
H        0.75805900      -1.93939800       1.11828100
H       -0.83091100      -2.59287500       0.68235800
H       -0.34827700       0.82258800       1.48535700
H        1.87984300       0.78019500      -0.63104500
H        1.97690700       0.03802300       0.96311000
H        1.82148200       1.78517200       0.81017800
H       -0.37945100       1.83272300      -1.41350500
H       -0.44282800       2.80462200       0.04746200
H       -1.78239600       1.73451500      -0.35613000
H       -0.69400100      -1.93463800      -1.63966400
H        0.93796800      -1.27600100      -1.43514000
H       -0.36624700      -0.24933600      -2.07109000
