16
Properties=species:S:1:pos:R:3 pbc="F F F"
C       -0.29135000      -2.29828000      -0.37575800
O       -0.18089700      -0.99751200      -0.91719700
C        0.45995200      -0.06668800      -0.04732100
C        0.52207800       1.35924800      -0.60750400
C       -0.09461000       1.88145800       0.69844100
C       -0.36995700       0.44088300       1.15624100
H       -0.78445100      -2.93599000      -1.11599500
H       -0.88966900      -2.30386500       0.55363300
H        0.70224400      -2.72360600      -0.14101100
H        1.45520600      -0.46596000       0.25819300
H       -0.12560000       1.49859100      -1.47430700
H        1.51591300       1.74222300      -0.85536800
H       -0.97600200       2.51746200       0.58569600
H        0.62071300       2.40703500       1.33589000
H       -1.42450500       0.16726300       1.09396000
H       -0.00335200       0.17720700       2.15229200
