18
Properties=species:S:1:pos:R:3 pbc="F F F"
C       -1.49204000       0.79129200      -0.39210800
C        0.03626800       0.86105000      -0.20661400
N        0.45614300       0.70124700       1.21235700
C        0.22936500      -0.60247400       1.82811600
C        0.79483400      -0.10210000      -1.15266500
N        0.10947100      -1.38130600      -1.36133800
H       -1.98716000       1.54131800       0.22300500
H       -1.88253200      -0.18405900      -0.11388100
H       -1.75944700       0.97344200      -1.43042200
H        0.35282900       1.88677400      -0.48428300
H       -0.00469800       1.42321900       1.77117100
H        0.87666000      -1.36158800       1.37858400
H       -0.81338300      -0.95876100       1.75159000
H        0.48067700      -0.53987800       2.88964200
H        1.82613400      -0.24134800      -0.76947500
H        0.89771000       0.38316000      -2.13486100
H        0.00859400      -1.88880100      -0.48680900
H        0.63475700      -1.95967900      -2.01176900
