21
Properties=species:S:1:pos:R:3 pbc="F F F"
C       -2.88462400       0.19323100      -0.84800900
C       -1.38594600       0.28559000      -1.10770800
C       -0.62564900       0.92700400       0.06117900
C        0.88871000       1.03588700      -0.17889600
C        1.73410500      -0.17293300       0.22245100
C        1.64654900      -0.77841600       1.59099700
C        1.19159000      -1.55807900       0.39739700
H       -3.39931700      -0.25449700      -1.69561900
H       -3.31376500       1.17881100      -0.67790800
H       -3.09421600      -0.41443600       0.03012800
H       -1.21018700       0.87154400      -2.01658500
H       -0.98839600      -0.71389700      -1.30958200
H       -0.82347200       0.36950800       0.98208200
H       -1.02896200       1.93221100       0.22583200
H        1.27006300       1.90861300       0.36687300
H        1.06812600       1.25311800      -1.23881600
H        2.74526800      -0.12658600      -0.18839600
H        0.88317400      -0.40705600       2.26744400
H        2.56825600      -1.08067000       2.07845700
H        0.12598300      -1.72177700       0.28225500
H        1.80902800      -2.38859000       0.06937400
