14
Properties=species:S:1:pos:R:3 pbc="F F F"
N       -1.35580500       0.00012600       0.45040400
C       -0.66605200      -1.20785600      -0.06337800
C        0.71865600      -0.74489300      -0.50245500
C        0.71876800       0.74472400      -0.50255300
C       -0.66586900       1.20794900      -0.06351500
N        1.47579100      -0.00007400       0.51087100
H       -1.34599900       0.00018000       1.47124900
H       -1.21690700      -1.63676200      -0.92029500
H       -0.64230200      -1.98171600       0.71651500
H        1.30873400      -1.34422900      -1.20181400
H        1.30893100       1.34386500      -1.20200600
H       -1.21667500       1.63685400      -0.92046600
H       -0.64197500       1.98187900       0.71630200
H        0.97326900       0.00003100       1.40300200
