19
Properties=species:S:1:pos:R:3 pbc="F F F"
C       -0.62590900      -2.60479400      -0.21409900
C       -1.25609200      -1.42870400       0.52932000
C       -0.71110200      -0.07792900       0.10638200
C       -1.51689600       0.87298500      -0.38516600
C        0.78481900       0.12551200       0.27006200
C        1.22335900       1.56362100       0.28617000
C        2.15098800       2.07672100      -0.52236300
H       -1.07071100      -3.54275700       0.11154100
H        0.44495400      -2.66170000      -0.02978800
H       -0.77727400      -2.51625600      -1.28745000
H       -1.08689500      -1.56098400       1.60625100
H       -2.34007400      -1.44475600       0.38122000
H       -2.57915800       0.69764800      -0.50682500
H       -1.13112300       1.84038500      -0.68168300
H        1.31162500      -0.41480000      -0.52687200
H        1.09904700      -0.35244300       1.20969300
H        0.75020800       2.20167000       1.03289900
H        2.64019300       1.47240200      -1.27760500
H        2.44420700       3.11712300      -0.45321800
