13
Properties=species:S:1:pos:R:3 pbc="F F F"
N       -0.02248900       0.44424000       1.78643700
C       -0.48455500      -0.72991800       1.04216700
C        0.10665600      -0.70787100      -0.38607500
C       -0.41960000       0.44171000      -1.16700400
C       -0.86428100       1.37932200      -1.78633800
O        1.52605400      -0.65735500      -0.30665500
H       -0.37204600       0.42773800       2.74143400
H       -0.34470300       1.29894400       1.33595700
H       -1.59056900      -0.78971400       0.99154400
H       -0.13959100      -1.63410900       1.56073000
H       -0.16325800      -1.64284500      -0.91657200
H       -1.23139900       2.19797000      -2.35617000
H        1.76124200      -0.00829000       0.37475400
