14
Properties=species:S:1:pos:R:3 pbc="F F F"
O        0.47341300      -2.24358700      -0.49756500
C        1.15054000      -1.02185100      -0.26775900
C        0.22896400      -0.05559200       0.45678700
C        0.56107100       1.42383500       0.46129600
C       -0.62916200       0.91495200      -0.30057500
O       -1.92154000       1.21504000       0.16485600
H        1.05804200      -2.86646200      -0.94738200
H        1.48976000      -0.58147300      -1.23106300
H        2.07031700      -1.20842300       0.33152900
H       -0.18643500      -0.44531800       1.38714600
H        1.43805100       1.74601800      -0.09275800
H        0.38899100       1.97027900       1.38307900
H       -0.59037600       0.91894800      -1.39337000
H       -1.95181800       1.12675300       1.12600300
