16
Properties=species:S:1:pos:R:3 pbc="F F F"
C       -1.72729900      -1.69145600      -0.05650200
C       -0.22187900      -1.46821100      -0.13127100
C        0.21874500      -0.08418700       0.38484500
C       -0.28164600       1.09758800      -0.46994200
O        0.37882500       2.27542400      -0.04784500
O        1.66054400      -0.01813100       0.42832300
H       -1.98190700      -2.69917200      -0.37707400
H       -2.26595600      -0.99366900      -0.69492100
H       -2.09104000      -1.56209800       0.96104800
H        0.11791400      -1.59684900      -1.16630100
H        0.28819600      -2.23720000       0.45685200
H       -0.11726800       0.04777900       1.42884500
H       -0.07924300       0.90619800      -1.54775600
H       -1.36956700       1.24033700      -0.36639500
H        1.23433900       2.00545700       0.32598600
H        2.02205700      -0.29153100      -0.42688800
