19
Properties=species:S:1:pos:R:3 pbc="F F F"
C       -3.42267800       0.27201900       1.02766400
C       -2.21477600       0.25271100       1.01330100
C       -0.75150000       0.23222100       1.00373500
C       -0.17360100       0.08740600      -0.41295700
C        1.36984800       0.15262800      -0.45202800
C        2.02061500      -1.04453800       0.25369300
C        1.86312900       0.25559700      -1.90185500
H       -4.48453400       0.28825000       1.03703700
H       -0.40583900      -0.59102300       1.64227200
H       -0.37995900       1.15751100       1.46468900
H       -0.57744800       0.88560500      -1.04357300
H       -0.51524400      -0.85482000      -0.85226800
H        1.68311400       1.06817300       0.07637400
H        1.71455100      -1.98179600      -0.20664400
H        1.74789000      -1.08216400       1.30631300
H        3.10502700      -0.98093600       0.19265000
H        1.58023600      -0.62567300      -2.47402500
H        2.94718200       0.34173100      -1.93540300
H        1.43880600       1.12687400      -2.39674800
