15
Properties=species:S:1:pos:R:3 pbc="F F F"
C       -0.73955200      -1.81057200       0.04206700
C       -1.02569500      -0.79824300      -1.05913600
C       -0.66949800       0.65225600      -0.71320900
O        0.77458400       0.84857300      -0.60490400
N        1.39110900       0.85856700       0.61180400
C        0.73864600       0.61998100       1.70106300
H       -0.99832100      -2.81426500      -0.28971400
H       -1.31977300      -1.59572300       0.93764000
H        0.31310700      -1.80540400       0.31190700
H       -2.08956500      -0.83663200      -1.32202700
H       -0.47775400      -1.08461100      -1.96262500
H       -1.18589700       1.01084300       0.18872400
H       -0.97887900       1.30589900      -1.54526100
H        1.30805000       0.65633300       2.63082300
H       -0.32880900       0.38446900       1.78242700
