12
Properties=species:S:1:pos:R:3 pbc="F F F"
C       -2.37831600       0.38178500       1.32680800
O       -0.99725600       0.65101300       1.16396600
C       -0.37076000       0.03058400       0.13708100
C        0.96178000       0.17653600      -0.06007600
C        1.65146500      -0.44982500      -1.14141100
C        2.27834400      -0.96343300      -2.04547500
H       -2.77970000       1.09947000       2.04718600
H       -2.53854900      -0.63719900       1.71346300
H       -2.91989500       0.48292800       0.37442200
H       -1.00064300      -0.57979400      -0.52377900
H        1.55042400       0.79043600       0.61878700
H        2.81133200      -1.41782200      -2.84336300
