15
Properties=species:S:1:pos:R:3 pbc="F F F"
N       -0.94078600       0.61754700       2.25399600
C       -1.29436400       1.04264000       0.89805600
C       -0.77808100       0.06570100      -0.16453800
C        0.75445200       0.05852100      -0.28358200
C        1.22976100      -0.82869900      -1.34578300
C        1.62116800      -1.56032400      -2.22386500
H       -1.32222300       1.26208300       2.94123600
H        0.06805600       0.57809600       2.37353400
H       -0.91878100       2.06425200       0.67238800
H       -2.39026800       1.09714200       0.83003300
H       -1.20928000       0.33610000      -1.13348600
H       -1.12886500      -0.94455700       0.06333800
H        1.20608100      -0.25424400       0.66701300
H        1.11849900       1.07652700      -0.47928900
H        1.96466000      -2.20525500      -2.99446700
