19
Properties=species:S:1:pos:R:3 pbc="F F F"
C       -1.88967100      -0.18878800       0.79761300
C       -0.41187500      -0.28254700       0.52482800
C        0.20594100       0.33673900      -0.51023800
C       -0.42607500       1.18156500      -1.51561200
C        0.25009000       1.76055000      -2.52162200
C        0.33339300      -1.14991300       1.52206100
C        1.82665400      -1.32764900       1.29051600
H       -2.39243900       0.52402200       0.15091500
H       -2.07089000       0.10567700       1.83246900
H       -2.36806600      -1.16097800       0.66117200
H        1.28035700       0.20553400      -0.62572600
H       -1.50046400       1.34728800      -1.44436100
H        1.31897700       1.62211800      -2.63438200
H       -0.25249500       2.38315600      -3.25054400
H       -0.14707600      -2.13766400       1.54569700
H        0.17167100      -0.73585900       2.52701500
H        2.02760500      -1.79407100       0.32832900
H        2.25131900      -1.96424800       2.06424500
H        2.35076700      -0.37471200       1.31989200
