18
Properties=species:S:1:pos:R:3 pbc="F F F"
C       -1.38777600       0.91792700      -0.21682300
C        0.13079100       0.76827000      -0.08955100
C        0.57934200       0.12034600       1.20427700
C       -0.20061200      -0.26668000       2.21382400
C        0.74968200       0.03602200      -1.30950700
C        0.32428700      -1.42024600      -1.44339900
H       -1.78593300       1.53430600       0.58642000
H       -1.88839100      -0.04681600      -0.17881000
H       -1.64449000       1.39246300      -1.16206200
H        0.56354600       1.78667900      -0.09497200
H        1.65849800      -0.01959200       1.29224600
H       -1.27781500      -0.15735600       2.18400900
H        0.22467500      -0.71030400       3.10604900
H        1.84126100       0.08529400      -1.22790900
H        0.48268400       0.58059000      -2.22155800
H        0.58224300      -1.98465600      -0.55021400
H        0.81889400      -1.88776600      -2.29246100
H       -0.74945500      -1.50668200      -1.59366200
