11
Properties=species:S:1:pos:R:3 pbc="F F F"
C       -2.23608100       0.38337900      -0.00685500
C       -0.74608000       0.29775700      -0.00210000
C        0.15751400       1.33301400       0.00235100
N        1.49618800       0.97266600       0.00631700
C        1.64456600      -0.32896700       0.00500900
S        0.12503300      -1.23168000      -0.00130100
H       -2.55500200       1.42434000      -0.00793400
H       -2.67174900      -0.10081700       0.86923000
H       -2.66617400      -0.10099100      -0.88557100
H       -0.11567800       2.38648000       0.00288900
H        2.61525200      -0.82189400       0.00755700
