17
Properties=species:S:1:pos:R:3 pbc="F F F"
N       -2.75622200       1.42353100      -0.25038000
C       -1.29196300       1.41915900      -0.25531100
C       -0.74883800       0.01216600       0.01137200
C        0.78133200      -0.04198100      -0.00457000
C        1.32146900      -1.45167900       0.26701100
O        2.73971100      -1.47696600       0.24305700
H       -3.11300300       2.36218300      -0.40809600
H       -3.11448100       1.08542600       0.63911100
H       -0.87181000       2.12318200       0.49447100
H       -0.94291500       1.77339400      -1.23625500
H       -1.14976800      -0.67994800      -0.73639100
H       -1.11718000      -0.34177900       0.98140400
H        1.18510700       0.65114900       0.74090300
H        1.15279900       0.30812600      -0.97588200
H        0.91418700      -2.16632500      -0.48052200
H        1.00294600      -1.80596400       1.25849400
H        3.05799300      -1.08442300      -0.58004100
