12
Properties=species:S:1:pos:R:3 pbc="F F F"
O       -1.43817300       0.15467500       0.86864600
C       -0.01839000       0.11072200       0.76748700
C        0.40759100      -1.16879000       0.15182000
C        0.73554600      -2.22130900      -0.34359000
C        0.47335800       1.33273200      -0.03627500
O        0.07681000       1.26829100      -1.39011000
H       -1.77896900      -0.71030500       1.13350300
H        0.42551400       0.15686500       1.79448900
H        1.03316900      -3.14573900      -0.77681300
H        1.58114500       1.39544000       0.04241200
H        0.06187900       2.25381100       0.40397800
H       -0.02046200       0.34607900      -1.66250500
