19
Properties=species:S:1:pos:R:3 pbc="F F F"
C       -2.25750400       1.63508100      -1.71679600
C       -1.16325200       0.57907500      -1.86032500
C       -0.72884300       0.00490400      -0.54087800
C        0.55410500      -0.07587600      -0.14323300
C        1.03386900      -0.64784400       1.12835500
C        0.22119000      -1.15317900       2.07736200
C        2.52796800      -0.64026400       1.32074000
H       -2.58080900       1.98919900      -2.69346100
H       -1.90240400       2.49160000      -1.14846400
H       -3.12522800       1.22907300      -1.20105900
H       -0.30246500       1.00363500      -2.38687100
H       -1.54357400      -0.23399000      -2.49512400
H       -1.52224600      -0.36989400       0.10593200
H        1.32797100       0.30907500      -0.80814500
H       -0.85479100      -1.16689500       1.95781700
H        0.62547600      -1.56168900       2.99460200
H        3.02325300      -1.20453200       0.52964000
H        2.81012700      -1.07353000       2.27675400
H        2.91949900       0.37656600       1.27703200
