14
Properties=species:S:1:pos:R:3 pbc="F F F"
C       -2.22538300      -0.00725500       0.02290500
C       -0.73138100      -0.05955000       0.00455700
C        0.04995900      -1.14668000      -0.07358900
C        1.49181400      -0.74412900      -0.06260100
O        1.47703700       0.68392600       0.02766700
C        0.13430300       1.16830900       0.07267700
H       -2.65752400      -1.00304300      -0.04008800
H       -2.60661400       0.58322400      -0.81218400
H       -2.59013500       0.46514800       0.93683800
H       -0.29611300      -2.17372200      -0.13620800
H        2.03839100      -1.06051300      -0.97786600
H        2.05577400      -1.17176500       0.79508200
H       -0.04797200       1.86775000      -0.77197500
H       -0.02796600       1.75734100       1.00136700
