17
Properties=species:S:1:pos:R:3 pbc="F F F"
C       -2.34266400       2.14751500       0.35350000
C       -1.79096200       0.73212200       0.51973700
C       -1.10528400       0.23421000      -0.72597600
C        0.16552000      -0.17052300      -0.84691100
C        1.21092600      -0.18456900       0.24477300
C        2.09255200      -1.35179500       0.16646800
C        2.82993400      -2.30680400       0.10707800
H       -2.85730900       2.46841900       1.25685000
H       -3.04931700       2.19631000      -0.47249000
H       -1.54411200       2.85761400       0.15076600
H       -2.62340500       0.05640400       0.75727900
H       -1.11265500       0.70183500       1.37733200
H       -1.73319400       0.20712900      -1.61718300
H        0.50867100      -0.50748700      -1.82409100
H        0.74749900      -0.15070600       1.23851700
H        1.83338800       0.72202000       0.16720900
H        3.47030300      -3.15247900       0.05379500
