11
Properties=species:S:1:pos:R:3 pbc="F F F"
C       -0.90852000       2.11854300       0.85563800
C       -1.42946600       1.07142600       0.19117800
O       -0.76796000      -0.04155300      -0.21211100
C        0.61756000      -0.12438800       0.09111100
C        1.16079400      -1.38819100      -0.42021600
N        1.63695800      -2.36296300      -0.80045800
H       -1.54612800       2.94898100       1.12084600
H        0.13119500       2.17546500       1.14523400
H       -2.48442600       1.03208300      -0.09226700
H        0.77729600      -0.07101900       1.18580900
H        1.16482900       0.72331100      -0.36579100
