17
Properties=species:S:1:pos:R:3 pbc="F F F"
C       -1.31457400       0.47197100       1.55895300
C       -1.54710500      -0.17155500       0.19181500
C       -0.82188300       0.53046600      -0.93477900
C        0.49779000       0.60344000      -1.15600100
C        1.64305200       0.03991100      -0.34153700
N        1.44927300      -1.33289900       0.13045600
H       -1.86320900      -0.06088200       2.33362500
H       -1.64854000       1.50715900       1.56310400
H       -0.25971500       0.46311700       1.82534500
H       -2.62010600      -0.16136600      -0.02455400
H       -1.25974600      -1.22798500       0.23339100
H       -1.46808100       1.04475000      -1.64757900
H        0.81421900       1.18758900      -2.02183900
H        1.85798300       0.73644600       0.50257800
H        2.54790000       0.05424100      -0.96564400
H        0.70548800      -1.38067200       0.82063100
H        2.30521800      -1.67750100       0.55703900
