14
Properties=species:S:1:pos:R:3 pbc="F F F"
C       -1.64434400       0.80984600      -0.02305700
C       -0.15796600       0.96705400      -0.17884000
C        0.47542400       2.11321000       0.10756300
C        0.59465000      -0.25794500      -0.65833300
C        0.68090400      -1.33305300       0.43464200
O        0.24937600      -2.44893900       0.31373100
H       -2.10731200       1.73432400       0.31166900
H       -1.87554200       0.02604100       0.69943600
H       -2.10314800       0.51514400      -0.96740900
H       -0.07061700       2.98055200       0.45668100
H        1.54785700       2.20822700      -0.00914100
H        1.61561000       0.02084000      -0.94080200
H        0.10721700      -0.68582900      -1.53912400
H        1.19891600      -1.00245800       1.38699300
