15
Properties=species:S:1:pos:R:3 pbc="F F F"
C       -2.13910100      -1.52973700       1.58304400
C       -0.74221100      -1.64272000       1.06866600
C       -0.05892100      -0.71734600       0.36022700
C       -0.55324700       0.58558400      -0.04614000
C        0.17072700       1.48368600      -0.76050600
C        1.50970000       1.27692100      -1.21037500
C        2.64603900       1.16748700      -1.62429600
H       -2.15749700      -1.64054700       2.66916600
H       -2.76251700      -2.32937300       1.17772100
H       -2.60195000      -0.57918700       1.33174100
H       -0.23724400      -2.58068900       1.30040200
H        0.96001700      -0.95344600       0.05646700
H       -1.56775600       0.85963400       0.23907900
H       -0.27287500       2.44365600      -1.02774600
H        3.64190400       1.03669900      -1.97054500
