21
Properties=species:S:1:pos:R:3 pbc="F F F"
C       -2.80831200       1.64331600      -0.16989800
C       -1.30792900       1.70840700      -0.42670000
C       -0.58799300       0.40510100      -0.05922900
C        0.91764200       0.48535600      -0.32811100
C        1.72190800      -0.76739500       0.00998600
C        1.42275000      -1.63467200       1.19467000
C        1.19472400      -2.15555600      -0.19042000
H       -3.28971400       2.58075000      -0.44091200
H       -3.01830300       1.45004100       0.88037000
H       -3.27042500       0.84842100      -0.75224500
H       -0.87552300       2.53777400       0.14366700
H       -1.12899500       1.93867500      -1.48262600
H       -1.02453100      -0.42157700      -0.62911300
H       -0.76698000       0.17913700       0.99698100
H        1.33602000       1.33105900       0.23317700
H        1.07829300       0.72797200      -1.38662900
H        2.78533900      -0.64737300      -0.21004100
H        0.55035600      -1.40755700       1.79838300
H        2.26107700      -2.03557500       1.75604400
H        0.16871200      -2.27916900      -0.52051300
H        1.87792900      -2.90991800      -0.56832400
