16
Properties=species:S:1:pos:R:3 pbc="F F F"
N       -2.69176800      -1.04023800      -0.49166600
C       -1.26491900      -0.75033600      -0.64229300
C       -0.61380100      -0.48627300       0.69086100
C        0.59067200       0.07784700       0.85751700
C        1.48807700       0.54019600      -0.26135900
N        2.55310900       1.41313800       0.23474400
H       -3.12596500      -1.19746500      -1.39715200
H       -3.16981400      -0.27018400      -0.03122600
H       -1.08268300       0.10836500      -1.32793200
H       -0.78394000      -1.61643100      -1.12923400
H       -1.17644500      -0.79579600       1.57013600
H        0.97413000       0.21164600       1.86775000
H        0.87959200       1.03215000      -1.05417100
H        1.95369900      -0.33149300      -0.75319100
H        2.16410100       2.22027100       0.71493900
H        3.13776000       1.74001900      -0.52982100
