20
Properties=species:S:1:pos:R:3 pbc="F F F"
C       -0.15281300      -2.16555900      -1.19590400
C       -0.47046400      -1.13044900      -0.12326100
C       -0.05039200       0.30785800      -0.50628500
C       -0.68029300       1.35617400       0.44325100
C       -0.24541700       1.25478900       1.90056100
C        1.47350800       0.46282400      -0.58820100
H       -0.51756600      -3.14760500      -0.90111900
H        0.91858500      -2.24743200      -1.36563700
H       -0.62094200      -1.90554800      -2.14364200
H        0.01532300      -1.42017000       0.81383000
H       -1.54839900      -1.14128900       0.07238100
H       -0.45780300       0.51384600      -1.51045200
H       -1.77105900       1.26660500       0.38968900
H       -0.43697200       2.35661200       0.06863400
H       -0.50631000       0.28889000       2.32768300
H       -0.73248500       2.02408400       2.49648100
H        0.82926800       1.38671900       2.00380300
H        1.94775200       0.22330000       0.36124500
H        1.74274600       1.48464800      -0.84901500
H        1.89308900      -0.19648000      -1.34484800
