18
Properties=species:S:1:pos:R:3 pbc="F F F"
N       -0.13863100       2.04424900      -0.78832300
C       -0.60399900       1.37941500       0.43152100
C       -0.01841400      -0.04082400       0.59128200
C       -0.51988800      -0.98562200      -0.52341000
N       -0.29301700      -2.39131200      -0.17658600
C        1.51280100       0.00124500       0.66143900
H       -0.52797600       2.98098200      -0.85382800
H       -0.41610000       1.52090100      -1.61448500
H       -1.71358600       1.31676500       0.46692700
H       -0.30394600       1.99366500       1.29306100
H       -0.39340300      -0.43494600       1.54910200
H       -0.03880500      -0.71736900      -1.48763900
H       -1.60103200      -0.83556300      -0.66718900
H        0.69474200      -2.56583800      -0.00998900
H       -0.60527100      -2.99997700      -0.92868200
H        1.93066900       0.41489300      -0.25370500
H        1.93018300      -0.99383200       0.80538000
H        1.84306200       0.62448200       1.49041100
