16
Properties=species:S:1:pos:R:3 pbc="F F F"
O       -2.79813000       0.76048400      -0.22853300
C       -1.38795600       0.77991000      -0.34749400
C       -0.78285500      -0.11134500       0.73625500
C        0.74959700      -0.09338200       0.76867000
C        1.40585700      -0.74638900      -0.45636200
O        2.81845500      -0.77038400      -0.32826400
H       -3.19482100       1.32106200      -0.90712500
H       -1.01050200       1.82132800      -0.24811700
H       -1.08792000       0.43491000      -1.36086800
H       -1.13925100      -1.13743400       0.59931400
H       -1.16632000       0.21747200       1.70702000
H        1.09360400      -0.61380400       1.66810300
H        1.10492400       0.94112200       0.86119000
H        1.11929200      -0.20604300      -1.38432900
H        1.06798700      -1.78678600      -0.57003900
H        3.14255300       0.11461200      -0.11719400
