19
Properties=species:S:1:pos:R:3 pbc="F F F"
C       -2.88515600       0.65043900       0.60341100
C       -1.42866600       0.31978300       0.57725700
C       -0.60579200       0.64517900      -0.43777600
C        0.83192200       0.35252200      -0.51367700
C        1.54948800       0.79476000      -1.56689100
C        1.49886900      -0.44760400       0.58976700
C        1.20866700      -1.94520800       0.49373500
H       -3.13302900       1.25231500       1.47988900
H       -3.48950400      -0.25686000       0.66641500
H       -3.18765000       1.20007500      -0.28513100
H       -1.04257900      -0.21343700       1.44553100
H       -1.01986800       1.18661800      -1.28897600
H        1.08208200       1.36216900      -2.36288100
H        2.61115800       0.59849200      -1.64879900
H        1.17037300      -0.07743200       1.56752500
H        2.58097900      -0.29200000       0.54341800
H        0.14079300      -2.14496600       0.54758900
H        1.69443600      -2.48257400       1.30618500
H        1.57681800      -2.35163200      -0.44571800
