15
Properties=species:S:1:pos:R:3 pbc="F F F"
C       -1.17148100      -1.34147400       0.65353600
C       -1.41015200       0.14289800       0.89783000
N       -0.79278500       1.00430900      -0.12698400
C        0.67298200       1.10277800      -0.05967900
C        1.37738900      -0.02634400      -0.68669200
C        2.03842100      -0.89637600      -1.20291900
H       -1.71371200      -1.93679000       1.38565700
H       -0.11615900      -1.58957200       0.73280800
H       -1.51012900      -1.63131700      -0.33818400
H       -1.05317400       0.41134200       1.91553400
H       -2.49021300       0.34695800       0.88498200
H       -1.18804100       1.94379200      -0.04815000
H        1.03386600       1.20486900       0.98800800
H        0.97209300       2.02421300      -0.58327800
H        2.57200400      -1.69255200      -1.66093900
