21
Properties=species:S:1:pos:R:3 pbc="F F F"
C       -2.73903900      -0.05952200       1.09344000
C       -1.56737700       0.30597000       0.18693200
C       -0.87452500      -0.90951300      -0.37559600
C        0.42940500      -1.06676400      -0.64043900
C        1.57572400      -0.08073700      -0.43084300
C        1.37062300       1.24518000      -1.18084200
C        1.87506400       0.15566200       1.05957100
H       -3.24185100       0.83484300       1.45574800
H       -2.40428600      -0.62876400       1.95765300
H       -3.47070400      -0.66416500       0.56110100
H       -0.86321400       0.93750100       0.73509100
H       -1.94424600       0.91990400      -0.64361700
H       -1.53576100      -1.74660500      -0.60548800
H        0.73018700      -2.02811800      -1.05901200
H        2.47222200      -0.55420200      -0.86343100
H        0.52389500       1.80397500      -0.79024200
H        1.19404700       1.06585800      -2.23902000
H        2.25522500       1.87306500      -1.08868700
H        1.04563200       0.64738900       1.56239500
H        2.75601800       0.78479800       1.17579300
H        2.06359200      -0.78713100       1.56838500
