19
Properties=species:S:1:pos:R:3 pbc="F F F"
C       -2.56168800      -0.26905900      -0.58689000
C       -1.58089000      -1.05346800      -1.40154800
C       -1.11807100       0.13181900      -0.61047200
C       -0.25122200      -0.05683700       0.62935200
C        1.23794600      -0.10228100       0.30612100
C        2.04297600       1.15997700       0.24736300
C        2.24772000       0.19406400       1.37269500
H       -2.94901300      -0.73161100       0.31531000
H       -3.27714300       0.35413100      -1.11401200
H       -1.63225400      -0.96336300      -2.48191300
H       -1.31066300      -2.04257700      -1.04592500
H       -0.88257800       1.02583300      -1.19040400
H       -0.54578300      -0.98355700       1.13658000
H       -0.44090100       0.75790600       1.33862600
H        1.51776900      -0.87546200      -0.41127400
H        1.54404700       2.09662700       0.47465300
H        2.82449600       1.23788100      -0.50190800
H        1.88446000       0.48185200       2.35417300
H        3.16693400      -0.38295500       1.38636600
