14
Properties=species:S:1:pos:R:3 pbc="F F F"
N       -2.51134200       1.04005700       0.51122200
N       -1.11186000       1.07789900       0.49201100
C       -0.49809600       0.03180700       0.03599600
C        0.98678200       0.01330000      -0.07409000
C        1.74451100      -1.26235300       0.18373800
C        1.64676900      -0.72924800      -1.20566500
H       -2.87953500       1.60240800       1.27863100
H       -2.88543100       0.08747200       0.53346600
H       -1.04699000      -0.87654300      -0.28243200
H        1.47663100       0.93339100       0.24499000
H        1.17302200      -2.15318800       0.42474200
H        2.70058400      -1.18937800       0.69210500
H        1.00803800      -1.25842600      -1.90579700
H        2.53629800      -0.29246700      -1.64820800
