10
Properties=species:S:1:pos:R:3 pbc="F F F"
C       -1.36314000      -1.18409900      -0.81998100
C       -0.04138700      -0.98318500      -0.88194200
C        0.71256800       0.07068700      -0.14312400
O        1.91450700       0.22462100      -0.33585000
C        0.03155000       1.00668600       0.88448000
O       -1.09844600       0.88341100       1.28934000
H       -1.82899600      -1.97384800      -1.40059100
H       -2.00892900      -0.57650500      -0.19597500
H        0.57115600      -1.61308300      -1.52717300
H        0.70072700       1.83865100       1.25922400
