15
Properties=species:S:1:pos:R:3 pbc="F F F"
C       -1.41425000       0.00000400       0.35858600
C       -0.65421500       1.23774400      -0.15683700
C        0.76671900       0.74471200      -0.38572800
C        0.76671700      -0.74471600      -0.38572600
C       -0.65421900      -1.23774200      -0.15682900
N        1.33127400       0.00000200       0.75393200
H       -2.46219000      -0.00000100       0.04487100
H       -1.41065100       0.00000500       1.45160900
H       -0.70976400       2.07061300       0.55159000
H       -1.07987900       1.59630800      -1.10187900
H        1.45813800       1.32945700      -1.00182900
H        1.45813400      -1.32947300      -1.00182000
H       -0.70976900      -2.07060900       0.55159800
H       -1.07988600      -1.59632900      -1.10186000
H        2.35244500      -0.00000100       0.68940100
