21
Properties=species:S:1:pos:R:3 pbc="F F F"
C        2.20800900       1.26035400      -0.44284600
C        0.76034100       1.72981200      -0.38968900
C       -0.28161900       0.65244800      -0.09150200
C       -0.18254600      -0.75681900      -0.61600300
C       -0.03719700      -0.48825600       0.86238400
C       -1.09412000      -0.89718700       1.86688200
C       -1.39588100      -1.45312400      -1.19618000
H        2.86709900       2.09819500      -0.66112200
H        2.35718300       0.51116500      -1.21766100
H        2.52285100       0.82944500       0.50535900
H        0.50733300       2.20662800      -1.34538000
H        0.67289300       2.52038300       0.36662000
H       -1.29757100       1.05299600      -0.06468100
H        0.74832300      -1.00974500      -1.12703200
H        0.98143200      -0.57880400       1.24433900
H       -2.09786200      -0.74544900       1.47675900
H       -1.00307800      -0.31438400       2.78358300
H       -0.99474000      -1.94882100       2.13634600
H       -2.31436700      -1.12327900      -0.71607400
H       -1.32491100      -2.53441500      -1.07657000
H       -1.48649900      -1.24728000      -2.26276900
