17
Properties=species:S:1:pos:R:3 pbc="F F F"
C       -0.60778500      -1.86350700       1.10388100
N       -0.52749300      -0.47898400       1.56885800
C        0.37607400       0.37811400       0.78811300
C       -0.12797600       0.62620000      -0.65627800
O        0.18513100      -0.48553000      -1.50800600
C        0.47586500       1.90936700      -1.25068600
H       -1.26937300      -2.42691700       1.76632900
H        0.37361500      -2.37088700       1.09203400
H       -1.01498300      -1.89957700       0.09305800
H       -0.23746100      -0.46625500       2.54967900
H        1.40849400      -0.03453700       0.74491900
H        0.45134300       1.34146200       1.31302800
H       -1.22884700       0.70895300      -0.65258300
H        1.14283300      -0.61622800      -1.52520500
H        1.56480700       1.86890600      -1.24937300
H        0.17437400       2.78637600      -0.68086500
H        0.14953700       2.04479700      -2.27915900
