16
Properties=species:S:1:pos:R:3 pbc="F F F"
O       -0.73934800       1.01824100      -1.55627300
C       -0.54359400       1.14002400      -0.16118200
C        0.12364600      -0.11102000       0.40678900
C        0.36744700      -0.04237200       1.90761400
C       -0.21968900      -1.44327700      -0.20170800
C        1.12703600      -0.83679300      -0.44721800
H       -1.17028700       1.81246300      -1.89588100
H       -1.52004900       1.31598400       0.34520800
H        0.07809100       2.03790800       0.05891000
H       -0.56720000       0.09027300       2.45436300
H        1.01535800       0.79697200       2.16404600
H        0.84019300      -0.95216900       2.26969900
H       -0.91807200      -1.45004600      -1.03106100
H       -0.27650700      -2.30665100       0.45462900
H        1.31946700      -0.44236000      -1.43864800
H        1.98471300      -1.28767800       0.04315100
