16
Properties=species:S:1:pos:R:3 pbc="F F F"
C       -1.51003000      -0.21417600       0.37852900
N       -0.06207500      -0.38828700       0.31949800
N        0.52785500      -0.88258400      -0.80380000
C       -0.17738100      -1.45155100      -1.73793900
C        0.76748400       0.53929400       1.10407200
C        0.74004600       1.97980600       0.57635300
H       -2.02115300      -1.18248500       0.31657800
H       -1.89276900       0.41520000      -0.44133100
H       -1.77644300       0.25238000       1.32771900
H        0.35771200      -1.87252700      -2.58864800
H       -1.27077900      -1.54858600      -1.72531700
H        1.79849300       0.16293300       1.09502700
H        0.42367700       0.52279000       2.15038500
H        1.09003300       2.01758700      -0.45237400
H        1.37902700       2.62225600       1.17841300
H       -0.26896300       2.38631000       0.60356300
