14
Properties=species:S:1:pos:R:3 pbc="F F F"
C        0.02298000      -0.84668900       1.46254900
C        0.23305000      -0.90314500      -0.05132800
C        0.26574600       0.47726200      -0.73200000
C       -0.44487000       1.67058400      -0.22269500
O        0.95771900       1.52145800      -0.04278600
O       -0.78546500      -1.70758400      -0.67100400
H        0.12506900      -1.83793100       1.89842800
H       -0.97068800      -0.47487900       1.71266600
H        0.75516800      -0.18937900       1.92515200
H        1.19260100      -1.41165400      -0.26521200
H        0.48521600       0.44397000      -1.81179700
H       -1.04110900       1.61892300       0.69752700
H       -0.74089400       2.46964300      -0.91444300
H       -1.64482500      -1.51775600      -0.27115500
