14
Properties=species:S:1:pos:R:3 pbc="F F F"
C       -0.92271800       1.10274600      -0.83998700
C       -1.37087300      -0.26335500      -1.24578600
C        0.08470000       0.00399200      -0.98173700
C        0.77759400      -0.60346100       0.21908300
C        0.25366800      -0.52059400       1.59796700
O        1.34857600       0.28757900       1.18493900
H       -1.16959200       1.44747900       0.15862700
H       -0.92574000       1.88165900      -1.59555100
H       -1.68636700      -0.41461800      -2.27333400
H       -1.92124500      -0.85279400      -0.51822600
H        0.71889600       0.05796000      -1.86900200
H        1.43317000      -1.45928700      -0.02088600
H        0.50232800      -1.30164200       2.32919500
H       -0.67429000       0.02464700       1.81243100
