21
Properties=species:S:1:pos:R:3 pbc="F F F"
C       -2.30782400      -2.02328500       0.32564200
C       -1.36839600      -1.05443300      -0.38651100
C       -0.76995500      -0.03370500       0.54955000
C        0.47225100       0.48134900       0.49102600
C        1.50857900       0.09004200      -0.54747500
C        1.54617800       1.05285700      -1.73467700
C        0.91608800       1.52313800       1.48561800
H       -2.74901100      -2.72399300      -0.38040400
H       -3.11723300      -1.49011200       0.82042600
H       -1.77817500      -2.59861200       1.08182600
H       -1.93096200      -0.53634900      -1.17694900
H       -0.58269700      -1.61790500      -0.90025500
H       -1.43528800       0.32573000       1.33488800
H        1.31853200      -0.92317400      -0.91510600
H        2.49779900       0.07077400      -0.07575500
H        0.59106600       1.06809200      -2.25500000
H        2.31399300       0.75620100      -2.44698100
H        1.76456900       2.06766600      -1.40806800
H        0.11674700       1.78714700       2.17417600
H        1.24305100       2.43175000       0.97750800
H        1.76608600       1.16700900       2.07065500
