18
Properties=species:S:1:pos:R:3 pbc="F F F"
C       -1.76077900       0.67850700      -0.15734200
N       -1.69155100      -0.76253200       0.11149000
C       -0.32562800      -1.22522200      -0.16169500
C        0.55621600       0.01131600       0.03451800
C       -0.37621400       1.21442900       0.21134800
C        1.86149800       0.14012400      -0.69813200
C        1.85463100      -0.07279900       0.78492800
H       -2.56657200       1.14858800       0.42934400
H       -1.98693800       0.88983600      -1.22363100
H       -2.39215300      -1.28830800      -0.41302000
H       -0.22378100      -1.62544600      -1.19241000
H       -0.04877300      -2.05307400       0.51485600
H       -0.08654900       2.06768800      -0.41007900
H       -0.36275700       1.56548700       1.24969500
H        2.15349700       1.11996600      -1.06418600
H        2.18440500      -0.68680400      -1.32436700
H        2.14011000       0.76430000       1.41498100
H        2.17202500      -1.04262900       1.15663800
