17
Properties=species:S:1:pos:R:3 pbc="F F F"
C       -1.25265900      -1.83991000       0.24549000
N       -1.31421400      -0.47521500       0.75499000
C       -0.83380600       0.58116500      -0.16317900
C        0.68603600       0.73071200      -0.19653500
C        1.30447900       1.62385500       0.58924500
C        1.45967900      -0.15494100      -1.13424800
H       -1.73932300      -2.51447200       0.95610800
H       -0.22648200      -2.21635200       0.08374600
H       -1.78488600      -1.90857800      -0.70665700
H       -0.82627000      -0.40699700       1.65055500
H       -1.27728200       1.53775300       0.15654100
H       -1.21782400       0.36560000      -1.16877400
H        0.74340900       2.26681100       1.25700000
H        2.38250700       1.73153200       0.58207300
H        1.05319300      -0.09993000      -2.14471100
H        1.40022400      -1.19995700      -0.82593800
H        2.50985400       0.12581300      -1.16950600
