15
Properties=species:S:1:pos:R:3 pbc="F F F"
C       -1.97523900      -0.43119700      -0.50833800
C       -0.45409500      -0.37531800      -0.74167000
C        0.17644100       0.85358200      -0.06667400
C        1.63501800       0.90550800       0.23367300
N        0.66757600       0.65066000       1.30318100
O        0.17180100      -1.55373300      -0.24383900
H       -2.46758200       0.44340300      -0.93077000
H       -2.20465100      -0.46794100       0.55451200
H       -2.39773700      -1.31822700      -0.97359900
H       -0.26357600      -0.33531700      -1.83462800
H       -0.32561000       1.81089600      -0.25738900
H        2.13821700       1.87426100       0.23662200
H        2.26703300       0.05752100      -0.03044300
H        0.52575700       1.48781300       1.87250600
H        0.38796400      -1.39261000       0.68969300
