14
Properties=species:S:1:pos:R:3 pbc="F F F"
C       -0.65357200      -1.67278900      -0.31420200
N        0.72327100      -1.45589400       0.08901500
C        1.28207500      -0.29839200      -0.03979700
N        0.70552600       0.90126500      -0.51467900
C       -0.50171400       1.47174300      -0.10433000
C       -1.24704900       1.09529300       0.95249700
H       -0.76685800      -2.70012100      -0.67944800
H       -0.98333000      -0.98410000      -1.10354500
H       -1.33203900      -1.55762500       0.53964000
H        2.36683000      -0.21447800       0.16621600
H        1.35843400       1.54746500      -0.95252500
H       -0.80456200       2.32489400      -0.71754700
H       -0.94136200       0.28830400       1.60195500
H       -2.17713400       1.60292800       1.15988800
