17
Properties=species:S:1:pos:R:3 pbc="F F F"
C       -3.17030400      -0.36420800      -0.21293000
C       -1.71456000      -0.33254100      -0.19608400
C       -0.50162600      -0.27610100      -0.16217500
C        0.94011400      -0.28725100      -0.16793100
C        1.67279300       0.69442600       0.40649300
C        1.11047700       1.89003400       1.10482100
C        1.60530000      -1.46191200      -0.85400200
H       -3.54125700      -0.73225900      -1.17149600
H       -3.58434800       0.63253600      -0.04897400
H       -3.55335600      -1.02199500       0.57017000
H        2.75875300       0.62152200       0.36468100
H        0.02382300       1.87809000       1.09825000
H        1.44696700       2.81421900       0.62987600
H        1.44759800       1.93086700       2.14287600
H        0.86892000      -2.15052200      -1.25763300
H        2.23886500      -2.01655000      -0.16094300
H        2.24086900      -1.13059000      -1.67596100
