21
Properties=species:S:1:pos:R:3 pbc="F F F"
C       -1.50654200       0.21604900      -2.09250300
C       -1.70267900       0.05340900      -0.58989600
C       -0.93259400      -1.13009800       0.01138900
C        0.59899500      -0.97353300      -0.00542100
C        1.09846300       0.18182200       0.84585500
C        1.06936000       0.12945300       2.18508300
C        1.63856800       1.37968600       0.11522300
H       -2.10143500       1.04481200      -2.47092000
H       -1.80850000      -0.68366200      -2.62513700
H       -0.46529400       0.41426900      -2.33829100
H       -2.76976700      -0.08629400      -0.38481600
H       -1.41065100       0.97647100      -0.07966800
H       -1.19720100      -2.04682700      -0.52769000
H       -1.25922500      -1.27370700       1.04677700
H        0.94533000      -0.84950800      -1.03580700
H        1.03797300      -1.90876700       0.36029500
H        0.68491500      -0.73939100       2.70491800
H        1.42626400       0.95560900       2.78702100
H        2.49791100       1.10148900      -0.49687300
H        1.94907000       2.16235100       0.80289600
H        0.88918900       1.79242600      -0.56108800
