19
Properties=species:S:1:pos:R:3 pbc="F F F"
C       -1.41815900       0.88462700      -2.19102400
C       -0.48825300       1.37702400      -1.09090400
C       -0.02588700       0.31328000      -0.13022700
C       -0.37518700      -0.98199200      -0.09918500
C        0.29096800      -1.73278600       1.01934300
C        1.17215100      -0.68044500       1.72357800
C        0.94801800       0.64859900       0.97575700
H       -1.70882600       1.70699700      -2.84169600
H       -2.32467600       0.44943800      -1.77576200
H       -0.93475800       0.12727400      -2.80448800
H       -0.98538700       2.17606800      -0.52292300
H        0.39173500       1.85422400      -1.54375700
H       -1.06234200      -1.46041000      -0.78984900
H        0.88447700      -2.57684900       0.64353400
H       -0.44694300      -2.17105900       1.70467300
H        2.22608800      -0.97104500       1.69735200
H        0.90709200      -0.58712600       2.78044700
H        1.88471500       1.05441500       0.57168800
H        0.54692100       1.42823500       1.63675300
