16
Properties=species:S:1:pos:R:3 pbc="F F F"
C       -0.12355900       2.55360500      -0.43657100
C       -1.17921100       1.47376400      -0.24837500
C       -0.66158200       0.08297900      -0.01381800
C        0.63298100      -0.28187800       0.05124700
C        1.12021200      -1.64379600       0.28096000
C        0.37001500      -2.74124000       0.46216100
H       -0.59688000       3.51918800      -0.60249000
H        0.51153500       2.34048300      -1.29382000
H        0.51407000       2.64007500       0.44064100
H       -1.84113500       1.45565800      -1.12580600
H       -1.83405000       1.74807700       0.59098900
H       -1.43285300      -0.67834900       0.11199500
H        1.40468000       0.47610300      -0.07336100
H        2.20506200      -1.75075400       0.30116500
H       -0.71309900      -2.70283000       0.45353700
H        0.82953000      -3.70825900       0.62352900
