21
Properties=species:S:1:pos:R:3 pbc="F F F"
C       -3.24646200       0.23536900       0.58701400
C       -1.72305600       0.21409600       0.58336000
C       -1.15134600      -0.96004500      -0.21978600
C        0.38348000      -0.98698700      -0.23292200
C        0.98939800       0.19435000      -0.94617800
C        2.12538500       0.82766400      -0.62264100
C        3.03128900       0.51380100       0.52672900
H       -3.62222500       1.06993900       1.17531400
H       -3.65066100      -0.68174400       1.01158700
H       -3.64033200       0.33369800      -0.42282500
H       -1.35600700       0.16198200       1.61401400
H       -1.34354800       1.15421000       0.17037400
H       -1.52525800      -0.91357600      -1.24868000
H       -1.52230400      -1.90165100       0.19999100
H        0.70962400      -1.91013200      -0.73418000
H        0.76067800      -1.05194900       0.79291100
H        0.44693900       0.53890400      -1.82721600
H        2.44812700       1.65601800      -1.25382700
H        2.59460500      -0.20803800       1.21227100
H        3.26962900       1.41851200       1.08712500
H        3.97859700       0.10433700       0.16968000
