16
Properties=species:S:1:pos:R:3 pbc="F F F"
C       -2.78484400      -0.25352600       0.61171500
C       -1.29270600      -0.48333300       0.42722500
N       -0.62333000       0.77840900       0.08890100
N        0.67716900       0.75734100      -0.39609100
C        1.44795900      -0.25882600      -0.15784200
C        2.87328700      -0.25216400      -0.62965700
H       -3.28841500      -1.18149900       0.87202300
H       -3.23918700       0.12998900      -0.30081100
H       -2.97531300       0.46632200       1.40527200
H       -1.12056300      -1.24814600      -0.35672800
H       -0.86528500      -0.89612000       1.35572700
H       -1.21131700       1.39621000      -0.47987300
H        1.11476900      -1.15480300       0.39510900
H        3.10783600       0.66615700      -1.16163500
H        3.07211300      -1.09394200      -1.29662000
H        3.56631300      -0.34732500       0.20922200
