16
Properties=species:S:1:pos:R:3 pbc="F F F"
C       -1.32282500      -1.60116100       1.55011000
C       -1.60305900      -0.20294800       1.01387200
C       -1.05348200       0.03802200      -0.40413500
C        0.45241500       0.04550400      -0.47987800
N        1.08207400       1.05766500      -0.98360500
N        2.47380700       0.95994800      -1.08382100
H       -1.75565600      -1.72693200       2.54051900
H       -0.25419600      -1.79013600       1.62744600
H       -1.74899000      -2.36223800       0.89928700
H       -1.18591600       0.54183300       1.69930400
H       -2.68570000      -0.03594300       1.00133900
H       -1.43565100       0.99126200      -0.78134900
H       -1.44823800      -0.74227100      -1.07024900
H        0.99560800      -0.84235600      -0.10070900
H        2.91184100       1.87732300      -0.99980800
H        2.87743400       0.28965900      -0.42360900
