16
Properties=species:S:1:pos:R:3 pbc="F F F"
C        1.27619600      -0.95160600      -0.62452500
C        0.67219200       0.41378800      -0.27206800
C       -0.87400000       0.40583700      -0.29524700
C       -1.54995100      -0.39638900       0.78370300
C       -1.00447800      -0.81941100       1.92494500
O        1.15029500       1.40659300      -1.18844900
H        2.36247300      -0.91035700      -0.59096800
H        0.98444500      -1.25894900      -1.62820000
H        0.94220500      -1.71931300       0.06925100
H        1.02404500       0.72863000       0.72688400
H       -1.22677100       1.44352700      -0.22734300
H       -1.22393600       0.04690800      -1.27196000
H       -2.60219400      -0.61752800       0.59771400
H        0.03041200      -0.62558400       2.18026500
H       -1.59214600      -1.37330200       2.64667000
H        0.97935300       1.11991200      -2.09556600
