17
Properties=species:S:1:pos:R:3 pbc="F F F"
C       -1.54466300       0.00001200      -0.00000100
C       -0.00000200      -0.00000200      -0.00000200
C        0.51488300      -1.36116600      -0.51781800
C        0.51490100       1.12902200      -0.91989600
C        0.51489800       0.23213600       1.43770200
H       -1.93272900      -0.16199800      -1.00330100
H       -1.93269800       0.94991000       0.36135600
H       -1.93272300      -0.78786300       0.64197300
H        0.16512200      -1.54849900      -1.53074800
H        0.16511500      -2.17435200       0.11452100
H        1.60240700      -1.38648300      -0.52743800
H        0.16512700       0.98801800      -1.94030100
H        1.60242400       1.15001600      -0.93700500
H        0.16515600       2.09989400      -0.57560200
H        0.16514200      -0.55144100       2.10638800
H        0.16514500       1.18633800       1.82581300
H        1.60242100       0.23645000       1.46443500
