19
Properties=species:S:1:pos:R:3 pbc="F F F"
C       -2.24662600       0.85780100       0.04546300
C       -0.71286500       0.77225500      -0.00247400
C       -0.22919700       0.85354200      -1.39281800
C        0.16039900       0.93277100      -2.53376000
C       -0.19837200      -0.50577800       0.70245900
C        1.33020100      -0.56034100       0.79550200
C        1.82683800      -1.81042200       1.51061600
H       -2.59669800       0.85167700       1.07606000
H       -2.70210200       0.01506800      -0.46976000
H       -2.59923100       1.77155000      -0.42720600
H       -0.30490400       1.64679100       0.53604800
H        0.50386900       0.99352500      -3.53688000
H       -0.56778600      -1.38913600       0.17226600
H       -0.63022100      -0.54674400       1.70863800
H        1.69493400       0.32960300       1.32049100
H        1.75704700      -0.51959900      -0.21119800
H        1.44245600      -1.85895100       2.52766500
H        2.91339700      -1.82087500       1.56214300
H        1.50697400      -2.71187700       0.99180500
