11
Properties=species:S:1:pos:R:3 pbc="F F F"
C       -2.08406700      -1.03817500      -0.44113700
C       -0.81229500      -0.65671000      -0.63735400
O       -0.14046900       0.09348600       0.26940400
C        1.14262000       0.43853900       0.00269300
C        1.86964600       1.17940800       0.85357000
H       -2.59172200      -1.63639500      -1.18275700
H       -2.61926400      -0.75630200       0.45491800
H       -0.24484100      -0.92997300      -1.53988500
H        1.54358500       0.07032500      -0.95398300
H        1.45083800       1.52804300       1.78746700
H        2.88973400       1.43804800       0.61237700
