18
Properties=species:S:1:pos:R:3 pbc="F F F"
N        0.21112000       1.96548000       1.33464100
C        1.17485700       1.01818700       0.73744500
C        0.03621600       0.00696400       0.48219500
C       -0.93123800       1.13647000       0.89780400
C       -0.10186800      -0.55709300      -0.92454100
C        0.55115000      -1.85784400      -1.28499000
C       -0.93869300      -1.77658300      -1.17187900
H        0.23269000       2.90154800       0.92500700
H        1.97348200       0.69884200       1.42688100
H        1.65294100       1.39683400      -0.18123400
H        0.04495100      -0.81574300       1.21064100
H       -1.64682500       0.90176600       1.70288700
H       -1.49787100       1.57402600       0.05905600
H       -0.12033300       0.19806300      -1.71324700
H        1.08598700      -2.39360700      -0.50731600
H        0.98091800      -1.95933300      -2.27636600
H       -1.40510400      -2.25848100      -0.31852700
H       -1.52122100      -1.82287400      -2.08647000
