21
Properties=species:S:1:pos:R:3 pbc="F F F"
C       -0.12209100      -2.52155500      -1.11368800
C       -0.40835900      -1.49831300      -0.02155900
C        0.32336500      -0.14861600      -0.22035700
C       -0.21327600       0.89859700       0.76481000
C       -0.14988700       2.35617100       0.42570000
C       -1.47090500       1.65180000       0.45683600
C        1.84517700      -0.29309000      -0.07577200
H       -0.69414000      -3.43187700      -0.94546000
H        0.93116000      -2.79231400      -1.14154700
H       -0.39211600      -2.13371100      -2.09419100
H       -0.13803900      -1.91859300       0.95310400
H       -1.48653900      -1.30909500       0.01421500
H        0.10991100       0.20731700      -1.24079800
H       -0.05497200       0.64886700       1.81577000
H        0.24632900       2.63817900      -0.54464200
H        0.06831900       3.06177300       1.22111600
H       -1.96146100       1.46142500      -0.49252400
H       -2.14863000       1.87954800       1.27359500
H        2.11112600      -0.65567100       0.91557400
H        2.33786000       0.66575500      -0.22361700
H        2.24704400      -0.99157400      -0.80642200
