15
Properties=species:S:1:pos:R:3 pbc="F F F"
C       -1.94761600       0.00846600      -1.71418600
C       -1.02668100       0.77062900      -0.76581600
N       -0.47719400      -0.09668800       0.27317000
C        0.86571800      -0.08926400       0.59107200
O        1.66813800       0.64249600       0.00255100
C        1.29937400      -1.04829200       1.69760200
H       -2.34457900       0.67355900      -2.47696400
H       -2.78951000      -0.42688000      -1.17788100
H       -1.41584100      -0.79844700      -2.21307600
H       -1.58200500       1.61219400      -0.31073200
H       -0.17447100       1.19906800      -1.30462500
H       -1.11734800      -0.69841200       0.78185800
H        0.45266600      -1.48091500       2.22672800
H        1.93271700      -0.53193000       2.41472500
H        1.88885200      -1.86062200       1.27532900
