17
Properties=species:S:1:pos:R:3 pbc="F F F"
C       -0.47142100      -0.10163500       1.97271200
C       -0.74328500       0.05418500       0.49130400
C        0.19832500       0.80419300      -0.40002300
C        0.05994500      -0.69699300      -0.55541300
C        1.18846000      -1.63269200      -0.17610600
N       -0.34053900       1.71654200      -1.40134900
H       -0.91247000       0.72175400       2.53396800
H        0.59535900      -0.11353800       2.18423200
H       -0.89944400      -1.02739900       2.35722000
H       -1.80272800       0.16479900       0.25008500
H        1.12602900       1.16453000       0.05495800
H       -0.52188900      -1.03075100      -1.41677000
H        1.80326900      -1.21263000       0.61672600
H        1.83609600      -1.82438900      -1.03170900
H        0.80951200      -2.59494200       0.16962300
H       -1.28390400       1.44734800      -1.66734400
H        0.24179700       1.72707600      -2.23639200
