18
Properties=species:S:1:pos:R:3 pbc="F F F"
N       -2.52679500       1.06264200      -0.24150000
C       -1.06553900       1.10272600      -0.12413500
C       -0.49366400      -0.31869500      -0.12851700
N        0.98296600      -0.34340200      -0.20315400
C        1.64252700       0.21045200       0.98447400
C        1.49017900      -1.68111300      -0.53067500
H       -2.91511400       2.00157900      -0.20706700
H       -2.93295700       0.51779800       0.51522300
H       -0.74714700       1.64206000       0.79235600
H       -0.65983700       1.67137800      -0.97257600
H       -0.88273900      -0.85621900      -1.00392000
H       -0.86609600      -0.86978700       0.76302700
H        1.36278100       1.25769800       1.12579200
H        2.72688900       0.16422000       0.85446400
H        1.39104800      -0.33563300       1.91285200
H        1.04443200      -2.03011000      -1.46623500
H        1.26881300      -2.43333000       0.24933700
H        2.57570900      -1.64455600      -0.65755100
