17
Properties=species:S:1:pos:R:3 pbc="F F F"
C       -0.57913900      -0.95987200      -1.82569200
C       -0.61815600      -1.04905100      -0.30558300
C        0.09070100       0.07853000       0.46142200
C        0.13115700      -0.15100200       1.96774400
C        1.18848100       0.87602500      -0.16867400
N       -0.13373300       1.47319700       0.05219000
H       -1.17292700      -1.75934800      -2.26358900
H        0.43554600      -1.05640500      -2.20648400
H       -0.98354800      -0.01475700      -2.18437300
H       -0.18116200      -2.00578800       0.00480400
H       -1.66409000      -1.08383300       0.02318200
H        0.69755800      -1.04964000       2.21250100
H       -0.87368700      -0.27646400       2.37044900
H        0.59376700       0.69135000       2.47508500
H        1.47715200       0.67670500      -1.20174800
H        1.98634800       1.28295500       0.45478500
H       -0.65708700       1.51506900      -0.82524400
