13
Properties=species:S:1:pos:R:3 pbc="F F F"
C       -0.83833100      -0.44004000       0.09091500
C       -1.47136100       0.84878000       0.37538100
C       -1.99795800       1.90971500       0.61351400
C        0.67732700      -0.40724300       0.27680200
C        1.59353000      -0.10601700      -0.85837000
N        1.43696700      -1.47713100      -0.37103500
H       -1.07652900      -0.74120600      -0.93610800
H       -1.27688700      -1.20253400       0.75019100
H       -2.46158300       2.84314000       0.81819400
H        1.01277200      -0.11386400       1.27910600
H        2.54229800       0.39275700      -0.65179400
H        1.18264500       0.08440800      -1.85051500
H        2.23927400      -1.75394900       0.19872100
