21
Properties=species:S:1:pos:R:3 pbc="F F F"
C       -1.92224900       0.80001000      -1.62696000
C       -2.02414000       0.11953400      -0.48417400
C       -1.30431500       0.45547900       0.80050500
C        0.20155000       0.74344100       0.66841200
C        1.08694400      -0.52177900       0.58876700
C        0.85450500      -1.32435800      -0.69644900
C        2.56820700      -0.14383600       0.73104400
H       -2.49643200       0.51457500      -2.49970200
H       -1.25970900       1.65154600      -1.72760300
H       -2.71378500      -0.72428300      -0.43851200
H       -1.45782600      -0.35474300       1.52117700
H       -1.78624800       1.33872400       1.24172000
H        0.51713000       1.32447800       1.54242300
H        0.38395100       1.37880200      -0.20367300
H        0.82312700      -1.16846600       1.44228400
H        1.08174900      -0.72715500      -1.57697500
H       -0.17944100      -1.65265100      -0.77195500
H        1.49159000      -2.20682000      -0.71683300
H        2.88778600       0.50251900      -0.08406900
H        3.19731400      -1.03153100       0.71907100
H        2.74778200       0.38405400       1.66577800
