15
Properties=species:S:1:pos:R:3 pbc="F F F"
C       -2.21721500      -0.65050100      -0.76381700
C       -0.69487500      -0.63981800      -0.72703300
C       -0.13517600       0.46611300       0.18226600
C        1.36763700       0.51071800       0.17301500
C        2.13391500       0.45525200       1.26270900
H       -2.58294300      -1.44288200      -1.41350100
H       -2.60677500       0.29546200      -1.13518600
H       -2.63236100      -0.81301000       0.22885800
H       -0.30390800      -0.50578000      -1.74133500
H       -0.33009100      -1.61252500      -0.38275400
H       -0.50187800       0.33072900       1.20434900
H       -0.52317400       1.43437500      -0.16242100
H        1.83803600       0.59887900      -0.80742400
H        1.70336000       0.36294900       2.25327900
H        3.21401400       0.50121900       1.19329800
