15
Properties=species:S:1:pos:R:3 pbc="F F F"
C       -2.00933700       0.65689200       1.09319800
C       -0.57914000       0.46225400       0.63827100
N       -0.16860600       1.10460600      -0.60512900
C       -0.24961300      -0.36826300      -0.57599000
C        0.99348900      -1.18494800      -0.63515100
C        2.19869000      -0.80964600      -0.19464000
H       -2.12377900       1.60338100       1.62154600
H       -2.31602300      -0.13880700       1.77181300
H       -2.68986300       0.66203800       0.24525400
H        0.16769600       0.45439500       1.44334800
H        0.80966700       1.40174700      -0.55462400
H       -1.09212100      -0.77239400      -1.14690600
H        0.88221900      -2.17480600      -1.07877000
H        2.36449100       0.16325400       0.25504100
H        3.05342300      -1.46878400      -0.27491900
