14
Properties=species:S:1:pos:R:3 pbc="F F F"
C       -1.51066800       0.62040900       0.20460500
C        0.02054000       0.54537700       0.15447100
C        0.55013900      -0.24328100       1.28508400
C        0.99027100      -0.88061800       2.21197200
C        0.58057600       0.01622400      -1.15655300
C       -0.12022300      -0.25411000      -2.25670700
H       -1.83955800       1.00647800       1.16648600
H       -1.95690100      -0.36114400       0.06462700
H       -1.88861300       1.28147100      -0.57244600
H        0.41504700       1.57433200       0.27807700
H        1.36973500      -1.44802800       3.02584100
H        1.66081800      -0.12997000      -1.16629900
H       -1.19591400      -0.13363400      -2.30102700
H        0.37157900      -0.61352000      -3.15249300
