17
Properties=species:S:1:pos:R:3 pbc="F F F"
N       -0.09884400       2.22390800      -1.08322400
C       -0.56362000       1.33470500      -0.01777100
C       -0.01118800      -0.09630600      -0.19541300
C       -0.62663900      -1.04071800       0.86186400
O       -0.31453000      -2.39974500       0.60834900
C        1.52257300      -0.10731300      -0.14403000
H       -0.47214000       3.16097400      -0.95693300
H       -0.38971800       1.87777100      -1.99408200
H       -1.67368600       1.28823200       0.02649200
H       -0.23517300       1.74382300       0.94888100
H       -0.31981800      -0.45564600      -1.18977400
H       -0.27996500      -0.75223900       1.87827300
H       -1.72427300      -0.95172900       0.85830400
H        0.64158600      -2.49986300       0.51425300
H        1.88362500       0.16339600       0.84725200
H        1.93108700       0.60568600      -0.85559000
H        1.91986800      -1.09200700      -0.38920200
