17
Properties=species:S:1:pos:R:3 pbc="F F F"
C       -2.42782500      -0.10302300       0.19004700
C       -1.09226700      -0.07443200       0.00821700
C       -0.35686300       1.20677700      -0.31832500
C        1.05741000       1.21600200       0.26533500
C        1.85183600      -0.01459900      -0.17856200
C        1.05948900      -1.28038600      -0.01970900
C       -0.28270500      -1.29402900       0.07550400
H       -3.02340000       0.79993600       0.13868100
H       -2.94334900      -1.03277600       0.39802700
H       -0.92297600       2.07414700       0.03612900
H       -0.29370700       1.30618200      -1.41083600
H        0.99854200       1.23207400       1.35865200
H        1.58174400       2.13053300      -0.03301200
H        2.78720400      -0.08648300       0.38996500
H        2.15449600       0.09450300      -1.23099100
H        1.61542300      -2.21708600       0.01205600
H       -0.80842700      -2.23888500       0.20628500
