17
Properties=species:S:1:pos:R:3 pbc="F F F"
C       -1.94486700      -0.44603300       0.63463000
C       -0.51198800       0.00130400       0.87884800
C        0.15141200       1.10587800       0.00386900
C        0.04232500       0.48383700      -1.39620000
C        0.40347400      -0.78818200      -1.18382200
C        0.69574100      -0.81072300       0.32389200
C        1.49905800       0.50232900       0.45905200
H       -2.64639900       0.33124600       0.93472900
H       -2.17225200      -1.33915100       1.21501600
H       -2.12255600      -0.67239400      -0.41410800
H       -0.37218400       0.21972100       1.94808500
H       -0.08157000       2.17245500       0.12725100
H       -0.25790300       0.96857000      -2.31840600
H        0.47525100      -1.60934500      -1.88821100
H        1.03198900      -1.75083400       0.78248400
H        2.36308000       0.63773600      -0.19737600
H        1.77161300       0.75153600       1.48892500
