15
Properties=species:S:1:pos:R:3 pbc="F F F"
C       -1.99969600      -1.00764500       0.13269400
C       -0.70340800      -0.64783100       0.19802200
C       -0.04591800      -0.47697400       1.50133400
C        1.23819100      -0.14511000       1.69182500
C        0.10478300      -0.44368100      -1.07482400
C        0.55759000       0.93687500      -1.25998700
C        0.92794700       2.07165600      -1.44670200
H       -2.58047500      -1.16979900       1.03327900
H       -2.50388800      -1.13944800      -0.81695200
H       -0.68268200      -0.64653600       2.37006200
H        1.91170200       0.04097200       0.86395000
H        1.64161800      -0.03971300       2.69155700
H       -0.49819400      -0.73790100      -1.94266200
H        0.98387700      -1.10457100      -1.06361200
H        1.25111200       3.07326100      -1.58979000
