10
Properties=species:S:1:pos:R:3 pbc="F F F"
C       -1.57211800       0.29250000      -1.32645000
C       -0.28482600       0.65580800      -1.18720700
N        0.57448300       0.29333100      -0.14846600
C        0.26735800      -0.50544500       0.94192900
O        1.10008000      -0.75841200       1.80117400
H       -2.13347900       0.64282500      -2.17917000
H       -2.07790000      -0.34280000      -0.61266400
H        0.18849900       1.29801800      -1.93102900
H        1.52563600       0.65152600      -0.18568500
H       -0.78726500      -0.89277000       0.96878200
