9
Properties=species:S:1:pos:R:3 pbc="F F F"
C       -1.47028900       1.35768600       0.27311200
C       -0.14129900       1.28155300       0.40335800
C        0.65169900       0.05816600       0.09502800
O        1.86138500       0.00714000       0.22075800
C       -0.10671300      -1.13254100      -0.38445500
N       -0.69407800      -2.05225900      -0.75372700
H       -2.00842100       2.26837200       0.50973500
H       -2.05349500       0.51028600      -0.07417000
H        0.42899100       2.14085100       0.75221300
