19
Properties=species:S:1:pos:R:3 pbc="F F F"
C       -0.98603900       1.85022900      -1.86719900
C       -1.29740900       1.81496400      -0.37572600
C       -0.77843400       0.55983300       0.33956600
C        0.75033600       0.48061700       0.40896000
C        1.24592700      -0.74040800       1.20063800
C        0.88290300      -2.01765200       0.58484900
C        0.59912300      -3.07933500       0.08284600
H       -1.41658900       2.73669600      -2.32852000
H       -1.39409900       0.97698800      -2.37197800
H        0.08634100       1.86882700      -2.04872200
H       -2.38248300       1.87074500      -0.23781000
H       -0.88167800       2.70758800       0.10459800
H       -1.16421600      -0.33445900      -0.15923000
H       -1.18249400       0.54321600       1.35838200
H        1.14549700       1.38630100       0.88288900
H        1.16924400       0.45026100      -0.60115000
H        0.84169000      -0.71151600       2.22148200
H        2.33886900      -0.69533700       1.29802600
H        0.34148300      -4.00879800      -0.36157500
