18
Properties=species:S:1:pos:R:3 pbc="F F F"
C       -2.92208300       0.31808400      -0.42046100
C       -1.39985300       0.34569100      -0.47759700
C       -0.76157000      -0.44846000       0.66503100
C        0.74361200      -0.47610100       0.67812400
C        1.55926900       0.12339800      -0.19796800
C        3.05280800       0.05356600      -0.12761500
H       -3.35097200       0.88969800      -1.24078800
H       -3.28761600       0.74498800       0.51158700
H       -3.29898000      -0.70068300      -0.48922500
H       -1.05432400       1.38394800      -0.44256400
H       -1.06551200      -0.05917400      -1.43828100
H       -1.13021200      -1.48339900       0.63686300
H       -1.11476900      -0.04907300       1.62615900
H        1.18546900      -1.05176000       1.49297300
H        1.14667300       0.70521200      -1.02108900
H        3.38527700      -0.54124400       0.72022500
H        3.48567500       1.05148000      -0.03616100
H        3.46619000      -0.38706400      -1.03678300
