19
Properties=species:S:1:pos:R:3 pbc="F F F"
C       -0.99986100       2.38170700      -0.38738900
C       -1.28475000       0.88321000      -0.42930700
N       -0.70962200       0.16228200       0.71847300
C        0.75611600       0.01255800       0.71406400
C        1.30864100      -0.96549800      -0.34856300
C        0.90869200      -2.41546100      -0.10423700
H       -1.49158400       2.88669800      -1.21642200
H        0.06641700       2.58600600      -0.45902700
H       -1.36156300       2.82198500       0.53916200
H       -0.93664900       0.47132800      -1.40008900
H       -2.37208200       0.72282100      -0.40292100
H       -1.14304500      -0.76081600       0.79047700
H        1.06825200      -0.33140100       1.71281700
H        1.21110900       1.00053700       0.56570700
H        2.40126900      -0.89037500      -0.35626000
H        0.97321400      -0.65661700      -1.34364700
H        1.26142700      -2.76026400       0.86605100
H        1.33043800      -3.06850000      -0.86564600
H       -0.17288000      -2.53647300      -0.12693100
