17
Properties=species:S:1:pos:R:3 pbc="F F F"
C       -2.32494200      -0.11634700       0.71404400
C       -0.80512800      -0.14751400       0.91926300
C       -0.14598400      -1.37367600       0.32836500
C        0.87224200      -1.05788700      -0.49061900
C        1.03450200       0.39280900      -0.58954200
C        1.97868700       1.04319100      -1.29437100
C       -0.05341200       1.03246100       0.24815800
H       -2.79381000      -0.98564800       1.17156200
H       -2.57892100      -0.11486100      -0.34369800
H       -2.75797600       0.77472800       1.16457300
H       -0.61932300      -0.13355500       2.00860300
H       -0.47013900      -2.38301100       0.56650300
H        1.50283800      -1.76999800      -1.01358700
H        2.71958500       0.49948700      -1.86696500
H        2.02819300       2.12444900      -1.30813000
H       -0.72755100       1.62584900      -0.37924600
H        0.36131800       1.72433300       0.98860300
