15
Properties=species:S:1:pos:R:3 pbc="F F F"
N       -0.34731600       2.08553900       1.55471200
C       -0.40530400       0.77033800       0.91024400
C        0.65264600       0.66651500      -0.19253800
C        0.61427000      -0.63859500      -0.97746600
C        0.27062500      -1.95003600      -0.38689600
O       -0.65841700      -1.24684000      -1.20417800
H       -1.05335400       2.15790800       2.28264100
H       -0.50872000       2.82475900       0.87518300
H       -1.40272100       0.56061800       0.47799800
H       -0.22859800       0.00084200       1.67591000
H        1.65283700       0.79889400       0.23850800
H        0.51945100       1.50006600      -0.89347700
H        1.26608600      -0.64866100      -1.86902900
H       -0.00897400      -2.03436900       0.67070100
H        0.66912300      -2.87343500      -0.82805900
