13
Properties=species:S:1:pos:R:3 pbc="F F F"
C        0.04917100      -0.12416400       1.99678800
C       -0.56804600       0.05186600       0.61403200
C       -0.03791400       1.23494700      -0.19909000
C        0.49486900       0.52696500      -1.41837400
N        0.35911400      -0.76121700      -1.37376500
O       -0.24641600      -1.14383000      -0.21176200
H       -0.21103400       0.71210600       2.64407000
H        1.13394500      -0.18076800       1.93689600
H       -0.31033100      -1.03786300       2.46518800
H       -1.67289400       0.08156900       0.70457400
H        0.74658400       1.79649000       0.32502500
H       -0.82130500       1.96053700      -0.45159000
H        0.96408700       1.00940800      -2.27385200
