18
Properties=species:S:1:pos:R:3 pbc="F F F"
C        1.40874700      -0.35361000      -1.39998000
C        0.79277500      -0.35313600       0.01322500
C       -0.75847000      -0.41947800      -0.04534400
N       -1.30438800       0.76689700      -0.73869300
C       -1.36677500      -0.59126900       1.36073800
N        1.23414400       0.81536700       0.80442000
H        2.49547100      -0.31019100      -1.34861300
H        1.06249500       0.50501000      -1.97075200
H        1.13221500      -1.25311000      -1.94680100
H        1.14522100      -1.25577600       0.54559400
H       -1.03179300      -1.30256800      -0.65185200
H       -1.13152100       1.60183100      -0.18361300
H       -2.31099600       0.67020300      -0.84918300
H       -1.09577800       0.24453000       2.00178900
H       -1.00968000      -1.50487800       1.83234300
H       -2.45327600      -0.64010100       1.30910900
H        0.98594100       1.67478900       0.31977000
H        2.24574800       0.79937000       0.91027800
