15
Properties=species:S:1:pos:R:3 pbc="F F F"
C       -0.80059200       0.22374800      -1.62300100
C       -1.14747700       0.76607100      -0.24243700
C       -0.57781200      -0.06493600       0.91761000
C        0.95444300      -0.03946200       1.03316500
O        1.59451800      -0.78588900       0.01036500
H       -1.25555900       0.83678800      -2.39861500
H       -1.16500900      -0.79483400      -1.74476000
H        0.27433500       0.21650100      -1.78092700
H       -2.23734100       0.81137400      -0.13661700
H       -0.78845000       1.79744700      -0.15542100
H       -0.91736700      -1.10381100       0.82794000
H       -0.99910700       0.31315700       1.85608400
H        1.24996200      -0.44035300       2.02808400
H        1.33426200       0.99158900       0.97586000
H        1.17675800      -1.65327900      -0.06657300
