11
Properties=species:S:1:pos:R:3 pbc="F F F"
C       -1.07047500       1.24064400       0.83790400
C        0.41013600       1.05518400       0.71311400
C        0.99697000       0.05071600       0.03457100
C        0.28255800      -0.97680200      -0.65968900
C       -0.27880900      -1.86753400      -1.26194500
H       -1.30759200       2.11690100       1.43561300
H       -1.53886000       0.37432900       1.30614300
H       -1.53704200       1.36185800      -0.14031000
H        1.04775900       1.78644100       1.20698900
H        2.08481500      -0.01426600      -0.00920600
H       -0.79136000      -2.63851200      -1.78296200
