19
Properties=species:S:1:pos:R:3 pbc="F F F"
C       -0.96799900       2.23377000       0.94385200
C       -1.29683000       1.49278000      -0.34701800
C       -0.76549800       0.05365800      -0.39467700
C        0.76363500      -0.03885700      -0.44976700
C        1.26697900      -1.48273600      -0.54873700
N        0.88728500      -2.26773800       0.62876600
H       -1.40815600       3.22909100       0.93814500
H        0.10619700       2.34602300       1.07520400
H       -1.35547300       1.70122300       1.81024400
H       -0.90224200       2.05661600      -1.19968300
H       -2.38477900       1.46867700      -0.47387300
H       -1.18326800      -0.44528500      -1.27647000
H       -1.12914100      -0.50372700       0.47364700
H        1.19505400       0.43294100       0.43978900
H        1.13600500       0.52812300      -1.31053300
H        2.36896500      -1.47070400      -0.69585000
H        0.84388000      -1.96577300      -1.44200400
H        1.24999000      -1.83994500       1.47689200
H        1.25025200      -3.21477900       0.56120900
