17
Properties=species:S:1:pos:R:3 pbc="F F F"
O       -2.57178600      -0.45772300       0.03192500
C       -1.17273800      -0.66760000      -0.06664400
C       -0.45971300       0.67789700       0.14466500
N        1.01550800       0.62722400       0.06496000
C        1.65024100      -0.13019100       1.14410700
C        1.53434200       0.28311800      -1.25927600
H       -3.03987900      -1.29130800      -0.10368900
H       -0.92376300      -1.09684400      -1.06023400
H       -0.84723800      -1.41248000       0.69017100
H       -0.73879600       1.07939300       1.12914100
H       -0.82187600       1.39509400      -0.60566000
H        1.26587800       0.20722600       2.11012000
H        2.73178900       0.03668700       1.12539400
H        1.48565700      -1.22251100       1.07694500
H        1.06226700       0.91278700      -2.01771200
H        1.36437000      -0.77312400      -1.54234600
H        2.61452400       0.45695400      -1.28936800
