21
Properties=species:S:1:pos:R:3 pbc="F F F"
C       -1.30403500      -1.76140900      -0.49851700
C        0.17170400      -1.38049400      -0.49692000
C        0.58702300      -0.35253400       0.58444500
C        0.14847000       1.10668400       0.33528900
C       -1.28465400       1.54614500       0.31395700
C       -0.46466500       1.60477100      -0.93722000
C        2.11442400      -0.39318800       0.76276900
H       -1.47799800      -2.59495100      -1.17665300
H       -1.93696400      -0.93909100      -0.82199600
H       -1.63122400      -2.06613800       0.49383800
H        0.46079700      -1.01575000      -1.48774900
H        0.75902900      -2.29058900      -0.33091400
H        0.13925200      -0.67724400       1.54003200
H        0.81808400       1.82140300       0.81904400
H       -1.53284000       2.48436400       0.80120600
H       -2.06432200       0.79520200       0.37736900
H       -0.16031900       2.58228600      -1.29931400
H       -0.69098900       0.89085400      -1.72188700
H        2.62446800      -0.10092600      -0.15328400
H        2.44997100      -1.39472000       1.02565300
H        2.43344800       0.28543900       1.55183900
