17
Properties=species:S:1:pos:R:3 pbc="F F F"
C       -2.18940500      -0.00050300       0.99203100
C       -1.06165000      -0.00012500       0.27064900
C       -0.32988900      -1.24311600      -0.19469800
C        1.03378000      -0.75063600      -0.65603300
C        1.03375700       0.75125900      -0.65532300
C       -0.32992600       1.24332200      -0.19353600
C        1.84974000      -0.00017000       0.35568800
H       -2.66407800      -0.92595900       1.29402700
H       -2.66405000       0.92466900       1.29489800
H       -0.86907700      -1.71547100      -1.02701700
H       -0.26731300      -1.99947900       0.59656600
H        1.55886800      -1.31017400      -1.42993000
H        1.55881900       1.31163400      -1.42863500
H       -0.86917100       1.71641000      -1.02542200
H       -0.26741300       1.99889400       0.59850400
H        1.51744700      -0.00065200       1.38912000
H        2.92752800      -0.00005800       0.22523100
