17
Properties=species:S:1:pos:R:3 pbc="F F F"
C        1.69066500      -1.16625900       0.32062900
C        0.95239800      -0.91360100      -0.95690400
C       -0.14680400      -0.16954000      -1.14005500
C       -0.96188500       0.60662500      -0.09373400
N       -1.43382000      -0.23611000       1.02568900
C       -0.20578800       1.82824900       0.44711300
H        1.58924900      -2.21068300       0.62326900
H        1.34351500      -0.54189600       1.13868700
H        2.75664700      -0.98163500       0.18283500
H        1.37983700      -1.40843700      -1.83061800
H       -0.52916900      -0.10651500      -2.15996500
H       -1.86457400       0.97856500      -0.61488400
H       -0.65344100      -0.54113300       1.60112900
H       -1.90378400      -1.06311200       0.66581300
H        0.69380600       1.53499300       0.98387500
H       -0.83614600       2.39072500       1.13253900
H        0.08929000       2.48905600      -0.36479900
