13
Properties=species:S:1:pos:R:3 pbc="F F F"
C       -1.19130700      -0.92596200       1.21443700
C        0.32002700      -0.90782900       1.02224000
C        0.73531000      -0.40476500      -0.36673000
C        0.36187200       1.05635200      -0.60092600
O       -0.10261900       1.47989800      -1.62752800
H       -1.44947000      -1.29576500       2.20408400
H       -1.66956600      -1.56881500       0.47884800
H       -1.61153000       0.07192900       1.10613200
H        0.72070400      -1.91498200       1.17434600
H        0.78003400      -0.27244700       1.78746300
H        0.29640200      -1.02576300      -1.15155200
H        1.82460500      -0.48832500      -0.46896200
H        0.57436700       1.74820400       0.27573900
