15
Properties=species:S:1:pos:R:3 pbc="F F F"
C       -2.13655000      -0.35423900       0.52028400
N       -0.67586500      -0.41076200       0.41866700
C       -0.12637600      -1.12331700      -0.73966500
C       -0.05552800       0.36838900      -0.66543500
C        1.24524900       1.08306500      -0.31127700
O        1.92099200       0.39797600       0.72262400
H       -2.50607600      -1.25368400       1.02096600
H       -2.63258000      -0.27788500      -0.45978300
H       -2.43170900       0.51077300       1.12104600
H       -0.83863000      -1.57431800      -1.43440900
H        0.76860500      -1.71492800      -0.54155800
H       -0.74433100       0.92290500      -1.31717000
H        1.02535100       2.13035100      -0.00320800
H        1.91333800       1.14862800      -1.18853100
H        1.24838000      -0.04369900       1.26754900
