16
Properties=species:S:1:pos:R:3 pbc="F F F"
C       -2.45620300      -0.89400300       0.69813400
C       -0.94890800      -0.77363100       0.82305600
O       -0.41676100      -0.21634000      -0.37912000
C        0.99060400      -0.07914500      -0.35885000
C        1.58726500       0.94063200      -1.26245900
C        1.59150000       1.16447800       0.22907000
H       -2.88627100      -1.31278600       1.60601200
H       -2.72688100      -1.53937400      -0.13475200
H       -2.91014900       0.07950600       0.52557800
H       -0.48950000      -1.76861900       1.01302100
H       -0.67733900      -0.13336800       1.68979900
H        1.52900200      -1.03270600      -0.20908900
H        0.91209600       1.55220400      -1.85009300
H        2.53521100       0.71998400      -1.74386100
H        0.91976900       1.92331700       0.61445400
H        2.54260000       1.09257400       0.74818600
