16
Properties=species:S:1:pos:R:3 pbc="F F F"
C       -1.69234600      -1.05854400      -0.10416300
C       -0.22380000      -0.73566000      -0.16790900
C        0.63954900      -1.53219200      -0.81218600
C        0.18423100       0.54752800       0.56292900
O       -0.61281300       1.64152500       0.07828400
C        1.67102200       0.90722300       0.46498600
H       -1.94246900      -1.91267700      -0.72856500
H       -2.28499600      -0.20185600      -0.42315300
H       -1.98950800      -1.28510300       0.92117700
H        0.30032000      -2.43453200      -1.30685400
H        1.69856600      -1.31176700      -0.86089500
H       -0.08658000       0.43394400       1.63180900
H       -0.40435600       1.79588000      -0.85339200
H        1.98271100       1.03727400      -0.57015200
H        2.29471200       0.13611700       0.91201000
H        1.86216900       1.84038600       0.98981300
