16
Properties=species:S:1:pos:R:3 pbc="F F F"
C       -2.41878100       1.18245800      -0.13331700
O       -1.01836500       1.00136200      -0.10630200
C       -0.59870700      -0.02604900       0.78424100
C        0.92652800      -0.14845100       0.73990800
C        1.43371400      -0.56675600      -0.61239400
C        2.26176400      -1.59027500      -0.82315000
H       -2.64695700       1.98581300      -0.84020600
H       -2.80986400       1.45930400       0.86331700
H       -2.93920700       0.26208600      -0.45625100
H       -1.08246800      -0.98819300       0.50981700
H       -0.93374600       0.21000000       1.81904300
H        1.26034300      -0.85578600       1.50654700
H        1.36078000       0.82658500       0.99753300
H        1.08426700       0.02926900      -1.45466300
H        2.62457500      -2.20376300      -0.00627600
H        2.60208800      -1.84177000      -1.82016900
