10
Properties=species:S:1:pos:R:3 pbc="F F F"
O       -1.60329800       0.77737000      -0.13079400
C       -0.19915000       0.54985000      -0.06141000
C        0.16066800      -0.13046200       1.19613400
C        0.44076900      -0.68044600       2.23519800
C        0.20508000      -0.29165700      -1.30425300
O        1.34295900      -0.44765900      -1.65498500
H       -1.93843600       1.06649400       0.72931500
H        0.34365300       1.52385900      -0.10488300
H        0.69764800      -1.17505000       3.14061100
H       -0.66435400      -0.73670300      -1.87282600
