21
Properties=species:S:1:pos:R:3 pbc="F F F"
C       -1.56626000      -0.77595500       1.82042700
C       -1.64964200       0.65970200       1.31510100
C       -1.26492900       0.84429600      -0.16492100
C        0.23443300       1.05733800      -0.43829200
C        1.10209800      -0.18562900      -0.28793100
C        1.15083100      -1.21006500      -1.37985100
C        2.33866800      -0.33618600      -1.12205800
H       -1.91463400      -0.83828000       2.84960100
H       -0.54831700      -1.15616400       1.79123600
H       -2.18540700      -1.43734600       1.21776400
H       -1.02579000       1.30620300       1.94135300
H       -2.67871900       1.01090100       1.45011800
H       -1.79607000       1.72401800      -0.54576500
H       -1.62839500      -0.00628800      -0.75005200
H        0.61181600       1.84618800       0.22444500
H        0.34508500       1.43796200      -1.45984400
H        1.17504000      -0.57380000       0.72879600
H        0.57646500      -1.02313900      -2.28129500
H        1.22147200      -2.25693000      -1.10220500
H        2.56259600       0.43597600      -1.85133800
H        3.21366600      -0.79030500      -0.66767100
