19
Properties=species:S:1:pos:R:3 pbc="F F F"
C       -1.46738700      -1.11307600       1.79012400
C       -1.64824000      -0.57614500       0.36460900
N       -1.02058300       0.73760600       0.12971700
C        0.45123800       0.74460700       0.08030400
C        0.99700800       0.13907800      -1.22082700
C        2.51541400       0.22008200      -1.30578000
H       -1.96747800      -2.07229300       1.90621300
H       -1.88742800      -0.42454000       2.52121900
H       -0.41562900      -1.25290800       2.03006500
H       -2.72460800      -0.48368400       0.15058100
H       -1.24636300      -1.29763100      -0.35793600
H       -1.33755700       1.39297400       0.84792400
H        0.90261300       0.22103400       0.94887400
H        0.77538200       1.79245000       0.15390900
H        0.55285800       0.65844300      -2.07583400
H        0.68495400      -0.90733300      -1.30223900
H        2.85696200       1.25316400      -1.26970800
H        2.87861000      -0.21892600      -2.23274600
H        2.98357100      -0.31126400      -0.47893000
