14
Properties=species:S:1:pos:R:3 pbc="F F F"
C       -0.94693800       2.19702500      -0.32448300
N       -1.62220900       0.98608900       0.12060600
N       -0.98776200      -0.22731100       0.11639400
C        0.32101600      -0.28205600       0.07280500
C        0.99002900      -1.57424900       0.11550800
C        2.32376200      -1.73548800       0.06267800
H       -1.68683200       2.99235300      -0.41942600
H       -0.44502800       2.06557600      -1.29614100
H       -0.19003600       2.52037100       0.39915200
H       -2.59939800       0.91477900      -0.17448200
H        0.95221200       0.61933000       0.00302700
H        0.34820000      -2.45199500       0.18951100
H        2.99021800      -0.88382200      -0.01207300
H        2.77324100      -2.71942400       0.09238500
