12
Properties=species:S:1:pos:R:3 pbc="F F F"
C       -1.54531500       0.60351200       0.25859600
C       -0.01355500       0.53874200       0.23456200
C        0.47194900      -0.86405600       0.33491500
C        0.90497100      -1.99117100       0.38604800
N        0.50742800       1.20234600      -0.97519100
H       -1.93844000       0.15668900       1.16854900
H       -1.97032700       0.07250400      -0.59039300
H       -1.87868700       1.63755400       0.20989700
H        0.37801900       1.08751700       1.11359900
H        1.26942600      -2.98768600       0.44264100
H        0.15592000       0.73828500      -1.81005300
H        1.52378300       1.15655300      -0.99262200
