19
Properties=species:S:1:pos:R:3 pbc="F F F"
C       -1.04102400       2.33349400       1.55595200
C        0.24587100       1.62763100       1.84811800
C        0.65408700       0.46012200       1.33258100
C       -0.10446500      -0.40036000       0.35293900
C        0.80539600      -1.24219000      -0.50574200
C        0.57029500      -1.64699100      -1.76127500
C       -0.63746200      -1.34257800      -2.59092500
H       -0.85887000       3.38185000       1.31707900
H       -1.69586000       2.31740900       2.42982800
H       -1.58045000       1.88218800       0.72685000
H        0.89902700       2.12873300       2.56275100
H        1.61928100       0.06860800       1.65531600
H       -0.76939100       0.21015200      -0.26639700
H       -0.77070900      -1.07309100       0.92091300
H        1.73605000      -1.55879300      -0.03349200
H        1.32107600      -2.27082000      -2.24680400
H       -1.28379600      -0.60329200      -2.12475500
H       -1.22747700      -2.24613800      -2.75740000
H       -0.34506800      -0.97157300      -3.57377300
