21
Properties=species:S:1:pos:R:3 pbc="F F F"
C        0.58179100       0.50695600      -1.76743900
C        0.18971500      -0.82671700      -1.11912300
C        0.67331300      -0.98511600       0.34469400
C        0.19452700      -0.02643200       1.44084700
C        0.60721000       1.41413100       1.50565800
C       -0.83086900       1.05681300       1.29790100
C       -1.30588000      -1.12694600      -1.28589300
H        1.64257500       0.70681800      -1.63060600
H        0.02546800       1.34412900      -1.35464500
H        0.38265800       0.47705900      -2.83725200
H        0.72817600      -1.61272000      -1.67715500
H        1.77120200      -0.97019000       0.33628100
H        0.40093700      -1.99990900       0.65942600
H        0.17943600      -0.51863900       2.41628700
H        1.14693500       1.83376500       0.66377800
H        0.89814300       1.82037100       2.46966200
H       -1.26399300       1.25791900       0.32529800
H       -1.51476100       1.21040900       2.12741600
H       -1.92921500      -0.39326200      -0.78198500
H       -1.54760900      -2.10596700      -0.87692900
H       -1.57880200      -1.12591300      -2.33945100
