12
Properties=species:S:1:pos:R:3 pbc="F F F"
N       -1.59233100      -1.80309900       0.47931200
N       -0.20102900      -1.81428600       0.44249100
C        0.42699400      -0.72648500       0.12426500
C       -0.23707600       0.61116400      -0.18144300
C        0.72233100       1.67951300      -0.44937900
C        1.51444900       2.56410400      -0.67178300
H       -1.94672000      -2.52986100       1.10194800
H       -1.99641700      -0.89109800       0.70456200
H        1.51777100      -0.78351600       0.06663200
H       -0.88301700       0.91162600       0.65959900
H       -0.90898900       0.50327200      -1.04664900
H        2.21069700       3.34150000      -0.86866600
