12
Properties=species:S:1:pos:R:3 pbc="F F F"
C        1.00851600      -0.71645300      -1.07626200
C        0.47104600      -0.17069000       0.26678400
C       -1.00655200      -0.17507600       0.27988700
C       -2.21336000      -0.21782800       0.27397000
N        0.97944400       1.18067300       0.56927800
H        2.09672700      -0.74140600      -1.06504200
H        0.69446500      -0.08876700      -1.90723300
H        0.64718900      -1.72550800      -1.26000000
H        0.81430700      -0.84704100       1.07498400
H       -3.27541200      -0.23147100       0.28558300
H        0.61338400       1.85600300      -0.09738200
H        1.99534000       1.19376800       0.51787300
