23
Properties=species:S:1:pos:R:3 pbc="F F F"
C       -0.14243300       0.71736200       2.47869500
C       -0.43190900       1.04660200       1.01881000
C       -0.02950900      -0.07561700       0.03040100
C       -0.68258000       0.14874200      -1.35570400
C       -2.18574900      -0.10252600      -1.37946700
C        1.51096700      -0.17314200      -0.09594100
C        1.99726600      -1.46776700      -0.73664100
H       -0.46654600       1.52956300       3.12644300
H        0.91975800       0.55905000       2.65383300
H       -0.66669500      -0.18508900       2.78701100
H        0.08219600       1.97414300       0.74401200
H       -1.50244200       1.24977600       0.91438000
H       -0.40074400      -1.03239500       0.43087200
H       -0.20839500      -0.51384200      -2.08678800
H       -0.47659800       1.17061700      -1.69264000
H       -2.41561300      -1.12402900      -1.08260900
H       -2.58382400       0.05167300      -2.38053200
H       -2.71729900       0.56646400      -0.70561900
H        1.95921700      -0.08802400       0.89902800
H        1.88330500       0.68186300      -0.67095000
H        1.66170000      -2.33432800      -0.16979100
H        3.08477800      -1.49229500      -0.77177900
H        1.63088800      -1.57506800      -1.75578600
