21
Properties=species:S:1:pos:R:3 pbc="F F F"
C       -1.47506000       0.24591000      -0.39066400
C        0.05740000       0.29651500      -0.39712200
C        0.59179500       1.73959600      -0.24768500
C        0.24889300       2.64815600      -1.42183800
C        0.64451100      -0.60614200       0.71722200
C        0.32281300      -2.06198700       0.52523300
C       -0.20976700      -2.84904400       1.46072500
H       -1.89123800       0.81005400      -1.22237600
H       -1.87504900       0.66348000       0.53138400
H       -1.82492900      -0.78077000      -0.47219600
H        0.40733400      -0.09783600      -1.36537400
H        1.68115400       1.70110800      -0.13538200
H        0.20447400       2.17747300       0.67844600
H        0.62143700       2.23605900      -2.35767600
H        0.69550900       3.63125200      -1.28772800
H       -0.82572500       2.78269000      -1.52167000
H        0.29166600      -0.27016500       1.69731500
H        1.73701100      -0.48567400       0.72064300
H        0.56514900      -2.48163500      -0.45236400
H       -0.46619400      -2.46668900       2.44199700
H       -0.40411800      -3.89737300       1.26975500
