15
Properties=species:S:1:pos:R:3 pbc="F F F"
C       -2.24299000      -1.62880200      -0.37758300
C       -0.72883500      -1.47075600      -0.34094600
C       -0.30030000      -0.04486000      -0.01056400
O        1.14613900      -0.01571500      -0.00397100
N        1.76523100       1.16844700       0.27110400
C        1.06550800       2.22747400       0.51663700
H       -2.51873200      -2.65354100      -0.61515700
H       -2.68781100      -0.97932500      -1.12949500
H       -2.68782200      -1.37641000       0.58339100
H       -0.30457300      -1.76106100      -1.30727000
H       -0.30460900      -2.15642600       0.39929400
H       -0.68562900       0.26754500       0.97845100
H       -0.68589000       0.67072200      -0.76123400
H        1.61759600       3.14376200       0.72953700
H       -0.02856200       2.29299500       0.53126500
