14
Properties=species:S:1:pos:R:3 pbc="F F F"
C       -2.60712800      -0.67795000       0.03952900
C       -1.19439400      -0.34007600       0.40931700
N       -0.22091400      -0.55876000      -0.41138600
N        1.09408800      -0.28930800       0.05786800
C        1.89399100       0.62079900      -0.75719600
C        1.38388400       1.04402400       0.58584300
H       -3.03191700      -1.39718200       0.74223600
H       -2.66330700      -1.10185300      -0.95958000
H       -3.24317200       0.20851500       0.07406700
H       -1.03084800       0.10662200       1.40972400
H        1.42608400       1.05142100      -1.64294800
H        2.94546000       0.35002000      -0.87344100
H        0.55871500       1.75730300       0.62458400
H        2.06865000       1.08085200       1.43503100
