14
Properties=species:S:1:pos:R:3 pbc="F F F"
C       -1.65733000      -0.28833200      -0.46090700
C       -0.12411200      -0.24453700      -0.43040500
C        0.38119400       0.64584500       0.70001400
C        1.14617700       1.72245500       0.52243300
N        0.41044300      -1.61938700      -0.29875100
H       -2.07107800       0.70665300      -0.60757600
H       -2.05394800      -0.68422900       0.47251500
H       -2.00443700      -0.92669900      -1.27008700
H        0.23955900       0.16386700      -1.39011400
H        0.10282800       0.34744000       1.71175600
H        1.44306700       2.04605600      -0.46933200
H        1.49547400       2.31442600       1.36035200
H        0.07283100      -2.04801300       0.56025700
H        1.42702700      -1.59637600      -0.26332500
