17
Properties=species:S:1:pos:R:3 pbc="F F F"
C       -0.81010800       2.55021200      -0.75853600
C       -1.08301900       1.37488800      -0.82038900
C       -1.44457800      -0.04019500      -0.91015700
C       -0.79467100      -0.91255100       0.17910700
C        0.71963500      -1.00001800       0.05247300
C        1.60027800      -0.00282600       0.73959800
C        1.54664700      -1.41471800       1.23215900
H       -0.55560900       3.57953500      -0.69937600
H       -1.16379900      -0.41639100      -1.90303900
H       -2.53744900      -0.12751200      -0.84353300
H       -1.22775000      -1.91893800       0.11244000
H       -1.06081600      -0.52410900       1.16643000
H        1.06670100      -1.35311100      -0.92055800
H        1.12634200       0.76100800       1.34650600
H        2.50027300       0.32217300       0.22778600
H        1.03768700      -1.60219400       2.17224800
H        2.40931300      -2.04920800       1.05556700
