15
Properties=species:S:1:pos:R:3 pbc="F F F"
C       -1.90783400       0.71894400       0.83405200
O       -0.51911000       0.46266700       0.71463500
C       -0.04585500       0.01763400      -0.47951000
C       -0.80410600      -0.16796800      -1.58395500
C        1.45089900      -0.19856300      -0.45367800
N        1.86137000      -0.91747900       0.75327800
H       -2.09750600       1.04563100       1.86097800
H       -2.49601600      -0.18742200       0.62859400
H       -2.22566700       1.51160500       0.14003700
H       -1.86735700       0.01969600      -1.60062400
H       -0.34509600      -0.53280600      -2.49140700
H        1.95001300       0.79377900      -0.52712500
H        1.76286200      -0.76004700      -1.34528600
H        1.41327100      -0.51035600       1.57117500
H        2.87015700      -0.87933800       0.87218200
