15
Properties=species:S:1:pos:R:3 pbc="F F F"
C       -1.52394800       0.86077200       1.09900400
C       -0.01738200       0.72071700       1.07151900
N        0.71713200       1.36873000      -0.01102600
C        0.71625800      -0.10535900       0.04392500
C        0.01000400      -0.83635300      -1.03877500
C        0.30344900      -2.08765200      -1.40338700
H       -1.81377100       1.78690000       1.59504200
H       -1.98313200       0.03683600       1.64473300
H       -1.93724000       0.87663600       0.09417800
H        0.45856200       0.76800500       2.06141600
H        1.61046500       1.73893800       0.32142300
H        1.64858400      -0.57127000       0.38882400
H       -0.79142700      -0.30017500      -1.54510600
H        1.09942800      -2.64434800      -0.92194600
H       -0.24168000      -2.58537900      -2.19509400
