17
Properties=species:S:1:pos:R:3 pbc="F F F"
C        0.03473800       1.89641500      -0.94974900
N       -0.68845800       0.63791000      -0.76594600
C       -0.10487800      -0.26491300       0.23464600
C       -0.23385900       0.22683200       1.66722300
C       -0.23562400      -1.73224700      -0.03611400
C        1.11614100      -1.07352300      -0.14794400
H       -0.43903100       2.47044600      -1.74905900
H        1.09720900       1.75400100      -1.21558100
H       -0.00077500       2.49495400      -0.03575900
H       -0.76102300       0.15084800      -1.66188500
H       -1.27472300       0.42744600       1.91757000
H        0.32415400       1.14988500       1.82186100
H        0.14662000      -0.51404400       2.36630900
H       -0.71120200      -2.04779100      -0.95964200
H       -0.39518000      -2.40430000       0.80091900
H        1.52350700      -0.94966000      -1.14568000
H        1.85054400      -1.31253800       0.61419800
