19
Properties=species:S:1:pos:R:3 pbc="F F F"
C       -2.90345000       0.70083300      -0.24427800
C       -1.38728500       0.74213400      -0.38770800
N       -0.73842700       0.07561000       0.74925300
C        0.73283300       0.09848900       0.72675200
C        1.36882100      -0.78417300      -0.36936500
C        2.89052800      -0.77632900      -0.30655600
H       -3.38517300       1.21138900      -1.07554700
H       -3.22236300       1.18166300       0.67800900
H       -3.26672500      -0.32556700      -0.22546300
H       -1.04390900       1.78684600      -0.42663200
H       -1.10036600       0.28800000      -1.36078400
H       -1.07501600      -0.88688700       0.82769900
H        1.09698700      -0.23512700       1.71109100
H        1.06603800       1.13824100       0.60368100
H        1.04304800      -0.44066200      -1.35635000
H        1.00301200      -1.81159900      -0.26511300
H        3.28297800       0.23015600      -0.44076400
H        3.31759900      -1.40797800      -1.08306300
H        3.24419700      -1.14345900       0.65540200
