21
Properties=species:S:1:pos:R:3 pbc="F F F"
C       -1.71468300       1.20731100      -1.79024500
C       -1.66316900       0.35732800      -0.76339500
C       -1.05576500       0.68167800       0.58073200
C        0.47196900       0.89016400       0.55987500
C        1.33913300      -0.38674800       0.45097900
C        1.16863300      -1.30970100       1.66498800
C        1.11404600      -1.14981800      -0.85909400
H       -2.17264400       0.92591600      -2.73048900
H       -1.29654900       2.20499700      -1.72231200
H       -2.10087900      -0.63483700      -0.87841100
H       -1.31396200      -0.10239900       1.29831800
H       -1.51046700       1.60493300       0.95973500
H        0.75650200       1.41445100       1.47961900
H        0.72553800       1.56109600      -0.26753900
H        2.38699800      -0.04060700       0.45121800
H        0.16388700      -1.72459800       1.71280000
H        1.35407200      -0.77172200       2.59274100
H        1.86710600      -2.14248700       1.61361700
H        0.11468800      -1.57649700      -0.90280000
H        1.82766700      -1.96648900      -0.95234400
H        1.23706300      -0.49304500      -1.71719500
