17
Properties=species:S:1:pos:R:3 pbc="F F F"
C       -0.91448200      -2.11217500      -0.98519400
C       -1.23535700      -0.76724800      -1.62377600
C       -0.72904400       0.42794600      -0.79959200
C        0.76883700       0.48303200      -0.69851800
C        1.45995400       0.71341200       0.43360000
C        0.87118000       0.92178900       1.72218100
C        0.43969900       1.10770500       2.84066500
H       -1.29080500      -2.93022000      -1.59609900
H       -1.36650300      -2.19295700       0.00104900
H        0.15938300      -2.24257700      -0.87034500
H       -2.31890700      -0.67439900      -1.75291300
H       -0.79910000      -0.72529600      -2.62786100
H       -1.16790900       0.40945600       0.20194400
H       -1.08402000       1.35196300      -1.27896200
H        1.32547500       0.33994300      -1.62490000
H        2.55000000       0.75179400       0.40484400
H        0.02766300       1.26552500       3.80704400
