17
Properties=species:S:1:pos:R:3 pbc="F F F"
C       -1.68621200       1.66289400      -1.95066000
C       -1.97966900       1.40851100      -0.66553100
C       -1.18123600       0.61759100       0.26938100
C       -0.00973800       0.00992700      -0.01435700
C        0.76215000      -0.78182600       0.96990000
C        1.53599800      -1.99555400       0.51746500
C        2.27017200      -0.76764400       0.92953900
H       -2.34630900       2.26378300      -2.56304300
H       -0.78692600       1.28083200      -2.41940000
H       -2.90010300       1.82228900      -0.25360800
H       -1.58550600       0.52311300       1.27714700
H        0.41399300       0.09021700      -1.01534100
H        0.31431000      -0.84644100       1.96283200
H        1.51507100      -2.24362400      -0.53872400
H        1.55946500      -2.85281100       1.18272800
H        2.75056200      -0.17934600       0.15462300
H        2.79665400      -0.78140400       1.87836000
