19
Properties=species:S:1:pos:R:3 pbc="F F F"
C       -1.47010300       2.05164600      -0.39645800
C       -1.67048800       0.53921700      -0.37829500
N       -1.02419000      -0.10678700       0.77634500
C        0.44814800      -0.16313000       0.74378300
C        1.01713300      -1.15202500      -0.29605900
C        2.53852900      -1.21396600      -0.26755300
H       -2.01548500       2.49838100      -1.22531500
H       -0.42000600       2.31292600      -0.51018400
H       -1.82750600       2.50328500       0.52629300
H       -1.32640600       0.11218900      -1.34405900
H       -2.74581100       0.31884600      -0.31399800
H       -1.39593000      -1.05317600       0.88594300
H        0.80215900      -0.45345700       1.74564100
H        0.84103100       0.84359500       0.55388900
H        0.68236800      -0.86650700      -1.29828700
H        0.60695800      -2.15052000      -0.10829900
H        2.97455200      -0.24067900      -0.48536200
H        2.91479600      -1.92134000      -1.00404000
H        2.89930400      -1.52648600       0.71085300
