21
Properties=species:S:1:pos:R:3 pbc="F F F"
C       -1.58841200       1.37843700      -0.53065000
C       -1.80006200      -0.02459300      -1.08360400
C       -1.08964800      -1.13360500      -0.29408900
C        0.44552500      -1.07247400      -0.34748500
C        1.12381400      -0.08872600       0.59116600
C        0.68930400       0.17205800       1.83231500
C        2.38912100       0.53457900       0.06485500
H       -2.16078500       2.10539500      -1.10398500
H       -0.54095000       1.66565600      -0.57576400
H       -1.90707200       1.44257500       0.50733000
H       -1.46994600      -0.05661000      -2.12803300
H       -2.87339800      -0.24517100      -1.09668900
H       -1.40634700      -2.09809200      -0.70725200
H       -1.43004700      -1.12224400       0.74565400
H        0.76343200      -0.86258100      -1.37467900
H        0.84029600      -2.07280500      -0.12039300
H       -0.21329500      -0.27585900       2.22756300
H        1.22925200       0.85289200       2.47827900
H        3.10593300      -0.23453400      -0.22673100
H        2.85887400       1.17680400       0.80573500
H        2.18620200       1.13052600      -0.82608000
