16
Properties=species:S:1:pos:R:3 pbc="F F F"
C        0.91453800      -0.10340800      -1.78715200
C        0.36419300      -0.36553800      -0.37668000
C       -1.10987000      -0.37242300      -0.38272700
C       -2.31786700      -0.39013000      -0.39674100
C        0.92205700       0.65917000       0.64120700
C        0.51033300       0.35817300       2.07512200
H        2.00201800      -0.15022500      -1.78550200
H        0.62042700       0.88077600      -2.14501200
H        0.54346800      -0.84308600      -2.49271600
H        0.69364100      -1.37196000      -0.06162400
H       -3.37989400      -0.40208300      -0.40524900
H        0.58845900       1.66370700       0.36400700
H        2.01467200       0.66345800       0.56384700
H       -0.57156100       0.38235400       2.18189400
H        0.93475900       1.08987200       2.75944500
H        0.85371100      -0.62787400       2.38273500
