15
Properties=species:S:1:pos:R:3 pbc="F F F"
C        0.93465900      -0.73409400       1.80388500
C        0.12324400       0.02391300       0.78833700
C       -0.70824500       1.01267400       1.15500900
C        0.31219900      -0.40219000      -0.63751700
C       -0.83617100      -0.42951600      -1.59934800
N        0.19961300       0.58297800      -1.72527800
H        0.73919900      -0.38327100       2.81367300
H        2.00150200      -0.62653900       1.60360100
H        0.71085900      -1.80104500       1.76148400
H       -0.81790400       1.29338500       2.19430000
H       -1.29435200       1.55971900       0.42607200
H        1.10884400      -1.13819100      -0.79238000
H       -1.81792000      -0.10790700      -1.24536700
H       -0.85667600      -1.18296200      -2.38931600
H       -0.12495700       1.48124100      -1.35732000
