13
Properties=species:S:1:pos:R:3 pbc="F F F"
O       -1.14957000      -1.61236000      -0.92932800
C       -0.21898400      -0.91090400      -1.23647200
C        0.63920500      -0.13684500      -0.24738900
C        0.37196500       1.38780500      -0.17207900
N        0.15888200       1.28840300       1.28337400
C        0.22903300      -0.18777300       1.23482300
H        0.06981500      -0.77026100      -2.32746700
H        1.69958100      -0.36529200      -0.42840100
H       -0.51633800       1.72040300      -0.73371600
H        1.21614900       2.03643900      -0.45796900
H       -0.74321500       1.65279000       1.59735200
H       -0.73692200      -0.68788700       1.40030000
H        0.96799400      -0.61983200       1.92760800
