14
Properties=species:S:1:pos:R:3 pbc="F F F"
C       -1.55323500      -0.11594200      -0.84865800
C       -0.02349900      -0.13816300      -0.75199200
C        0.50462800       1.18122600      -0.30821700
N        0.94964300       2.18541400       0.03560800
N        0.46776200      -1.23668600       0.10826300
C        0.08335800      -1.14433300       1.51926900
H       -1.87830700       0.62807800      -1.57224800
H       -2.00789200       0.12516300       0.10900500
H       -1.92272300      -1.08829400      -1.16531400
H        0.38775000      -0.31828000      -1.76414200
H        1.48762900      -1.28268600       0.03906500
H       -0.99558500      -1.27733500       1.63254300
H        0.35815500      -0.18197700       1.97973600
H        0.58162300      -1.94249400       2.07183300
