21
Properties=species:S:1:pos:R:3 pbc="F F F"
C       -2.90980100      -0.84219700      -1.53587900
C       -1.40087400      -0.86018700      -1.32894200
C       -0.90780500       0.31570100      -0.46818100
C        0.59412400       0.34333600      -0.34737100
C        1.32847600       0.37878900       0.78036100
C        0.76441900       0.38500000       2.17641900
C        2.83467200       0.41842300       0.70694400
H       -3.22936400      -1.69203100      -2.13570100
H       -3.22467600       0.06561000      -2.04713300
H       -3.43765500      -0.88667000      -0.58510800
H       -0.89816300      -0.83410300      -2.30164800
H       -1.10834500      -1.80354000      -0.85713600
H       -1.38510300       0.27232200       0.51479000
H       -1.24694000       1.25325900      -0.93114000
H        1.12974800       0.33992200      -1.29760400
H       -0.31916500       0.31216600       2.19072500
H        1.04828900       1.29931600       2.70005400
H        1.16813100      -0.44683900       2.75546000
H        3.18534500       0.41432300      -0.32241000
H        3.27327400      -0.43894900       1.22019300
H        3.22536000       1.31201500       1.19655600
