19
Properties=species:S:1:pos:R:3 pbc="F F F"
C       -2.67067500       1.29340500       1.59664900
C       -1.72419000       0.35840700       1.51052200
C       -1.04474700      -0.04974000       0.23212200
C        0.48408700       0.00739300       0.34777500
C        1.25309100      -0.42487200      -0.88331900
C        0.67997600      -0.82825400      -2.02543300
C        2.75170900      -0.36990600      -0.74092300
H       -3.13633500       1.53630000       2.54392500
H       -3.00692800       1.83974100       0.72293600
H       -1.40926800      -0.16875200       2.41216900
H       -1.38613300       0.58615700      -0.58978700
H       -1.34633400      -1.07596300      -0.01704700
H        0.80767000      -0.61175200       1.19535200
H        0.79149800       1.02847000       0.60783800
H       -0.39466600      -0.87244400      -2.14425200
H        1.28465300      -1.12399800      -2.87364600
H        3.08805900      -1.01236700       0.07392900
H        3.08129800       0.64215400      -0.50287200
H        3.25097700      -0.68614600      -1.65290500
