19
Properties=species:S:1:pos:R:3 pbc="F F F"
C       -2.24084600       1.39087600      -0.90439900
C       -1.02745800       1.21440100      -0.36520000
C       -0.46781000      -0.06023700       0.13212100
C       -1.22745100      -1.15562600       0.31631900
C        1.03340000      -0.02574300       0.42764500
C        1.53546600      -1.20336900       1.26858300
C        1.83346700       0.08509100      -0.88288600
H       -2.56384300       2.36920300      -1.23868200
H       -2.93859300       0.57086400      -1.02868300
H       -0.36686600       2.07911800      -0.28367900
H       -2.29001400      -1.14156800       0.10572500
H       -0.80962700      -2.08518900       0.67971600
H        1.22075200       0.89863300       1.00201800
H        1.44474000      -2.14464000       0.73053900
H        0.97712300      -1.28896900       2.19810200
H        2.58578400      -1.06534300       1.51749700
H        1.70535100      -0.80698300      -1.49196800
H        2.89559400       0.20051400      -0.67514600
H        1.50698100       0.94199600      -1.46853800
