17
Properties=species:S:1:pos:R:3 pbc="F F F"
C       -0.89856600       2.66804400       0.14060100
C       -1.08277000       1.49510100      -0.08485800
C       -1.36464200       0.08593200      -0.36356900
C       -0.75856900      -0.88585700       0.66360400
C        0.73859100      -1.15454700       0.53612200
C        1.39060300      -1.44431900      -0.78246800
C        1.70472500      -0.17527100      -0.05435700
H       -0.71187200       3.69367700       0.34378500
H       -1.01468700      -0.15937200      -1.37453500
H       -2.45496200      -0.04682600      -0.37604500
H       -1.29184300      -1.84214800       0.58236100
H       -0.96714300      -0.51279900       1.67233400
H        1.12395000      -1.73893200       1.37447600
H        0.79002600      -1.37442500      -1.68403400
H        2.15233500      -2.21689300      -0.81423800
H        1.31585300       0.74993100      -0.46397800
H        2.68211300      -0.08670500       0.40942800
