16
Properties=species:S:1:pos:R:3 pbc="F F F"
O       -1.44362800       1.04095300      -0.57792800
C       -1.46625500      -0.36780300      -0.65892000
C       -0.77870600      -1.04839100       0.54253200
C        0.75891700      -1.06877400       0.50017600
C        1.43913300       0.29094200       0.71815500
O        1.33491600       1.14054300      -0.42344600
H       -0.51859700       1.34355700      -0.50923600
H       -0.99428000      -0.71339000      -1.60657700
H       -2.52246400      -0.67978700      -0.69570200
H       -1.12671500      -2.08645800       0.59378500
H       -1.11079000      -0.56596100       1.46683800
H        1.09673000      -1.49267900      -0.45351400
H        1.11629000      -1.75234500       1.27851100
H        2.51071100       0.13520900       0.95676500
H        0.98699900       0.82777800       1.56339900
H        1.71327700       0.69625900      -1.19492900
