17
Properties=species:S:1:pos:R:3 pbc="F F F"
C        0.48951300      -1.67584400      -0.23715000
C        0.03051500      -0.35756600       0.41547200
C       -1.48345700      -0.28830800       0.43073600
C       -2.24312500       0.57028700      -0.24926100
N        0.61631200       0.81584900      -0.26197500
C        2.05929300       0.95599300      -0.08710200
H        1.56783400      -1.79626300      -0.15783200
H        0.22339300      -1.70064800      -1.29093900
H        0.01971100      -2.52669300       0.25223900
H        0.36475600      -0.39038500       1.48504500
H       -1.96868200      -1.03767200       1.05795600
H       -1.81531800       1.32008700      -0.90383200
H       -3.32373400       0.53528200      -0.17834400
H        0.15294000       1.66103200       0.08024300
H        2.59447100       0.15966000      -0.61173300
H        2.37338200       0.92640700       0.97261700
H        2.38062800       1.91088200      -0.50776800
