11
Properties=species:S:1:pos:R:3 pbc="F F F"
C       -1.46692100      -0.19459000      -1.35297500
C        0.05454300      -0.09874100      -1.31912600
C        0.59613100       0.35642000       0.03557600
O        1.40754000       1.24627800       0.16614500
C        0.08434600      -0.38616200       1.22363100
N       -0.31614500      -0.98276900       2.12436800
H       -1.80295100      -0.55694500      -2.32140900
H       -1.92310100       0.77770600      -1.18126600
H       -1.83257400      -0.87829000      -0.58977100
H        0.41586600       0.58727900      -2.08887100
H        0.48686400      -1.08216100      -1.54105300
