15
Properties=species:S:1:pos:R:3 pbc="F F F"
C       -1.85128500       0.91158100       1.08201300
C       -0.37075400       0.77298800       0.95526700
C        0.29746100      -0.02935100       0.08493200
C        1.73917800      -0.09551300       0.16770100
C        2.94777000      -0.16899700       0.21912000
C       -0.31315700      -0.90532200      -0.93655800
C       -1.44004900      -0.66425800      -1.61870600
H       -2.12568600       1.10129400       2.11923000
H       -2.37517500       0.01929600       0.74272800
H       -2.22641400       1.75520800       0.49579500
H        0.22293000       1.35446000       1.65900200
H        4.00732200      -0.22324500       0.27730700
H        0.25048400      -1.81027400      -1.16568200
H       -2.01170600       0.24636400      -1.49163600
H       -1.79674100      -1.36987600      -2.35935600
