8
Properties=species:S:1:pos:R:3 pbc="F F F"
O       -1.59339000      -0.01106100      -0.03610900
C       -0.37966600      -0.02869400      -0.09493800
C        0.35794400      -0.39425600      -1.31442200
C        1.07542200      -0.67523400      -2.25033700
C        0.49871500       0.34084900       1.13831900
O        0.02106000       0.65930200       2.19333600
H        1.64142500      -0.93463400      -3.11442000
H        1.62272800       0.29271600       0.98487600
