14
Properties=species:S:1:pos:R:3 pbc="F F F"
C       -0.47612600       0.76785000       1.99314400
C       -0.44236600       0.68155300       0.48160800
C        0.65901500       1.32431900      -0.31480200
N        0.60893200      -0.11990500      -0.13620400
C        0.36039000      -1.00766600      -1.20136800
N       -0.54757200      -1.92278000      -1.20470900
H       -1.01202400       1.65859400       2.31878500
H        0.52977800       0.80816000       2.40369400
H       -0.98076400      -0.09716600       2.42156700
H       -1.42553600       0.62129900      -0.00353800
H        1.47326200       1.83536400       0.20420200
H        0.43458800       1.71604900      -1.30986800
H        1.08139000      -0.94443600      -2.03518100
H       -1.13570000      -1.89540500      -0.36475900
