19
Properties=species:S:1:pos:R:3 pbc="F F F"
C       -1.77103200       2.04183500       0.63854000
C       -2.04850400       0.71114700      -0.05030900
C       -1.40640200      -0.49677400       0.64867800
C        0.12773800      -0.51270900       0.64433900
C        0.72846200      -0.67166600      -0.76163800
C        2.18861800      -0.76686500      -0.74198300
C        3.39397000      -0.84951700      -0.73384600
H       -2.28891800       2.85193800       0.12942800
H       -0.70871000       2.27539300       0.63976700
H       -2.10965300       2.02388400       1.67252500
H       -1.71071900       0.76111200      -1.09087100
H       -3.13122600       0.55070700      -0.09010400
H       -1.77390300      -1.41391000       0.17403000
H       -1.75181300      -0.53035300       1.68751400
H        0.47183700      -1.34033100       1.27271500
H        0.51490500       0.40201200       1.10266900
H        0.43769000       0.17667000      -1.39444500
H        0.31972000      -1.57052200      -1.24267900
H        4.45368300      -0.91930800      -0.72323600
