16
Properties=species:S:1:pos:R:3 pbc="F F F"
C       -0.35786900       0.56796400       2.37431600
C       -0.79396900      -0.10827500       1.08159500
C        0.00655400       0.39805800      -0.14762500
C       -0.53310700      -0.19648500      -1.43754300
C        0.21305700      -0.77196400      -2.37994900
O        1.39621000       0.12877900       0.01718400
H       -0.88072300       0.14623000       3.23037600
H       -0.56601900       1.63563600       2.34404600
H        0.71074700       0.44196900       2.53037500
H       -1.86208200       0.06431200       0.91159800
H       -0.66693600      -1.19269600       1.17273200
H       -0.09156900       1.50162100      -0.20134700
H       -1.61230600      -0.12195000      -1.58013900
H        1.28917000      -0.84723900      -2.27229300
H       -0.22939900      -1.16698500      -3.28652400
H        1.53144400      -0.82691500       0.06894100
