21
Properties=species:S:1:pos:R:3 pbc="F F F"
C       -1.63460600       2.30461500      -0.11042500
C       -1.74602200       0.92854400       0.53523600
C       -1.11299800      -0.20035800      -0.29129300
C        0.41818500      -0.13170000      -0.36292500
C        1.19801700      -0.37888800       0.94626400
C        2.00856500      -1.47954800       0.25092400
C        1.13275800      -1.34243900      -1.00058600
H       -2.10811600       3.06092000       0.51259600
H       -2.12110900       2.32039900      -1.08388900
H       -0.59540400       2.59329900      -0.25333600
H       -2.80460600       0.69618000       0.69590800
H       -1.28436300       0.95319000       1.52814600
H       -1.52242900      -0.18358500      -1.30803900
H       -1.40851100      -1.16228400       0.14282100
H        0.72188700       0.81077600      -0.84038200
H        0.57616600      -0.74600500       1.76662000
H        1.77896900       0.47022600       1.31611400
H        1.97971800      -2.45843300       0.73660800
H        3.05668900      -1.21813800       0.08551400
H        0.47787900      -2.20070800      -1.17130300
H        1.66983500      -1.13718900      -1.93054900
