12
Properties=species:S:1:pos:R:3 pbc="F F F"
N       -1.42608100       0.21712300       0.72925200
C        0.02365800       0.19080400       0.85917300
C        0.82009300       1.04096600      -0.11041100
C        0.79696300      -0.45770300      -0.25026100
O        0.06652600      -1.02376600      -1.30823900
H       -1.81961000       1.05576000       1.15158900
H       -1.84594900      -0.59591600       1.17567100
H        0.42209500       0.11843400       1.88535300
H        1.72217800       1.51668500       0.26250600
H        0.25660700       1.62642900      -0.82796800
H        1.70684600      -1.02268200      -0.02474100
H       -0.83608700      -0.67285000      -1.25226900
