10
Properties=species:S:1:pos:R:3 pbc="F F F"
C       -0.68456300       1.20038500      -0.61672500
N       -1.35061000      -0.09513600      -0.60371900
C        0.11683400      -0.06318100      -0.58681900
C        0.80305100      -0.49122700       0.62166300
C        1.44296000      -0.82360500       1.59229600
H       -0.79241800       1.78996300       0.29364700
H       -0.71183600       1.77508400      -1.54557300
H       -1.69482300      -0.34233100      -1.53431400
H        0.62265200      -0.35711400      -1.51656600
H        1.96100100      -1.13388100       2.46634200
