14
Properties=species:S:1:pos:R:3 pbc="F F F"
C       -1.57909700       0.02669900      -0.13189800
C       -0.07734600       0.02595000       0.11657400
C        0.33323000       0.08140900       1.58059800
N        0.75386800      -0.82837100      -0.74600500
C        0.82002200       0.62678100      -0.91981000
H       -2.05494300      -0.82720500       0.34968000
H       -1.80325400      -0.01919800      -1.19569700
H       -2.04202700       0.92717100       0.27131500
H       -0.07803000      -0.76290200       2.13275700
H       -0.03030900       0.99254700       2.05516400
H        1.41496800       0.05350200       1.67960100
H        0.19129000      -1.25049200      -1.48819900
H        0.37859800       1.03671400      -1.83051300
H        1.76577800       1.08342800      -0.62486100
