18
Properties=species:S:1:pos:R:3 pbc="F F F"
C       -1.31029700      -2.31661800      -0.22235600
N       -1.55256600      -1.03170000      -0.87318800
C       -1.05787500       0.13613700      -0.12574600
C        0.47136400       0.23735400      -0.13878900
C        0.97598100       1.50092200       0.56180300
N        2.43913900       1.56856900       0.53031600
H       -1.79049500      -3.10999200      -0.79922900
H       -1.70099400      -2.36040300       0.81090000
H       -0.23906100      -2.53081500      -0.17903000
H       -2.55503300      -0.92173700      -1.04098700
H       -1.41871700       0.12956200       0.92595600
H       -1.48800200       1.03424100      -0.59273900
H        0.83095900       0.22479400      -1.17178000
H        0.90635900      -0.64276400       0.34767700
H        0.58314000       1.53029600       1.60159300
H        0.57268400       2.39362900       0.06071100
H        2.84584900       0.74948900       0.97473200
H        2.77226600       2.39884900       1.01282200
