18
Properties=species:S:1:pos:R:3 pbc="F F F"
C       -2.51080800       1.11748600      -0.92573200
C       -0.98881100       1.06764600      -0.88804000
C       -0.45420600       0.33218800       0.35245100
C        1.04845600       0.36675000       0.43618600
C        1.87862800      -0.67802400       0.55814200
C        1.50797400      -2.12638400       0.62526900
H       -2.86011900       1.64076500      -1.81359200
H       -2.90698700       1.63517400      -0.05402600
H       -2.93675200       0.11596700      -0.93802600
H       -0.58932900       2.08731700      -0.90635800
H       -0.61624300       0.57558800      -1.79204600
H       -0.82280400      -0.69734900       0.35545200
H       -0.87114500       0.81127800       1.24928600
H        1.49002400       1.36359500       0.39872700
H        2.94834300      -0.47436300       0.61692100
H        0.43764700      -2.28682000       0.52789900
H        1.83095000      -2.56284900       1.57224100
H        2.00901100      -2.68627600      -0.16613500
