21
Properties=species:S:1:pos:R:3 pbc="F F F"
C       -1.65776300       2.38421800       0.50189100
C       -2.03791800       1.23666300      -0.42642500
C       -1.24570500      -0.05380700      -0.17492900
C        0.23841900       0.05084600      -0.55173500
C        0.98751100      -1.25511800      -0.32253200
C        2.47484200      -1.25115200      -0.14158900
C        1.58114300      -1.56486300       1.01784700
H       -2.27419000       3.25888900       0.30504700
H       -0.61769000       2.67428600       0.37047300
H       -1.79590200       2.10482000       1.54436100
H       -1.90364700       1.55035500      -1.46733900
H       -3.10533400       1.02182600      -0.30601700
H       -1.70287500      -0.86596000      -0.75170800
H       -1.33547900      -0.33885100       0.87848200
H        0.71450200       0.84914600       0.02603400
H        0.32215300       0.34165500      -1.60656900
H        0.57797900      -2.10848700      -0.86685200
H        2.98747700      -0.29448600      -0.13756400
H        3.04760000      -2.06474100      -0.57531300
H        1.49283400      -0.81851800       1.80066100
H        1.54939300      -2.59065700       1.37113400
