16
Properties=species:S:1:pos:R:3 pbc="F F F"
C       -1.39606900      -1.07277400      -1.29833800
C       -0.68433900       0.05342900      -1.33081100
C        0.04298900       0.68532400      -0.15506900
C       -0.33126200       0.05438000       1.16931900
C        0.50684200      -0.46752200       2.06451200
C        1.55502500       0.72651400      -0.42360700
H       -1.88088100      -1.45184300      -2.19016600
H       -1.51111700      -1.64887900      -0.38795200
H       -0.58374400       0.59093000      -2.27526900
H       -0.30466300       1.73689800      -0.10947800
H       -1.39900300       0.06271800       1.39286500
H        1.57655800      -0.50684100       1.89910800
H        0.13797600      -0.87853300       2.99646200
H        1.97358700      -0.27582100      -0.47568800
H        2.07317200       1.27034900       0.36348900
H        1.75900700       1.22491500      -1.36940300
