12
Properties=species:S:1:pos:R:3 pbc="F F F"
O       -2.15445300       0.67313800      -0.88002100
C       -1.00428400       0.31507100      -0.88664700
C       -0.50648900      -0.90481000      -0.10092200
O        0.92012800      -0.99127500      -0.11143300
C        1.61941100      -0.06169800       0.58583800
C        1.11277800       0.96192100       1.29710600
H       -0.22054000       0.84838600      -1.50528800
H       -0.87980300      -1.82372600      -0.57841900
H       -0.88493200      -0.88999300       0.93579800
H        2.69656400      -0.23616600       0.51188600
H        0.05176100       1.15092400       1.38122400
H        1.78305500       1.63277200       1.81417500
