17
Properties=species:S:1:pos:R:3 pbc="F F F"
C       -0.98108500      -1.41624100       2.05273800
O       -1.21603700      -0.16298300       1.44555500
C       -0.75717600      -0.05178400       0.09555300
C        0.76900700       0.09312200       0.00203500
C        1.27070600       0.22817400      -1.44081500
N        0.90195200       1.51745700      -2.02976600
H       -1.48533200      -1.42180000       3.02462000
H        0.09617500      -1.60435800       2.21634600
H       -1.37987400      -2.24387900       1.43770200
H       -1.25417300       0.83525500      -0.32901200
H       -1.09667200      -0.93246300      -0.49004500
H        1.24543900      -0.78095000       0.45949700
H        1.08699000       0.96213500       0.58484600
H        0.89088500      -0.62619200      -2.04331500
H        2.36740800       0.14570200      -1.45335200
H       -0.10682800       1.64299200      -2.03512600
H        1.24190000       1.58559800      -2.98530300
