19
Properties=species:S:1:pos:R:3 pbc="F F F"
C       -2.84241800       0.07810200      -2.17345500
C       -1.32137600       0.07583500      -2.08901200
C       -0.81042700       0.02360600      -0.64527700
C        0.72460300       0.02210400      -0.57552800
C        1.23316800      -0.02825300       0.79961500
C        1.65524300      -0.07008000       1.93247100
C        2.16354100      -0.12063600       3.29741200
H       -3.17225000       0.11550300      -3.20946500
H       -3.26177900       0.93865700      -1.65613000
H       -3.26083300      -0.81811500      -1.71984000
H       -0.92712900       0.97064300      -2.58328600
H       -0.92623600      -0.78034900      -2.64689500
H       -1.19950500      -0.87105900      -0.14943300
H       -1.20071000       0.87926400      -0.08563400
H        1.11820400       0.91934700      -1.07341300
H        1.11937500      -0.83559900      -1.13798900
H        2.66038200      -1.07270300       3.49237500
H        1.35188800      -0.00917300       4.01854200
H        2.88458800       0.67952000       3.47380600
