19
Properties=species:S:1:pos:R:3 pbc="F F F"
C        0.39195200       3.16175200       0.10524800
C        0.74261200       2.08652100       1.08551800
C        0.43318500       0.78506200       1.00828300
C       -0.35751500       0.10059800      -0.08023300
C        0.40923600      -1.03596400      -0.71290800
C       -0.00420500      -2.30125400      -0.86748200
C       -1.31191300      -2.88686000      -0.43523200
H       -0.26831600       3.90034600       0.56386300
H       -0.10295000       2.77252700      -0.78084100
H        1.28868400       3.69556600      -0.21313600
H        1.31145600       2.42348000       1.95280600
H        0.77239600       0.13291600       1.81314400
H       -0.63124000       0.82397100      -0.85876200
H       -1.30017300      -0.26960300       0.34217700
H        1.39900800      -0.77497700      -1.08780000
H        0.67019100      -2.99953600      -1.36435400
H       -1.91464000      -2.18414200       0.13440200
H       -1.14929700      -3.77276200       0.18027700
H       -1.89522200      -3.20691100      -1.30094000
