11
Properties=species:S:1:pos:R:3 pbc="F F F"
C       -2.84846500      -0.66395700       0.17223500
C       -1.39356800      -0.63504500       0.16461300
C       -0.18059600      -0.56838600       0.14738400
C        1.25707700      -0.57399600       0.14957400
N        2.02973600       0.44306300      -0.11456900
O        1.34139100       1.59943200      -0.41586000
H       -3.22520600      -1.45950800      -0.47393200
H       -3.25854800       0.28399000      -0.18096600
H       -3.22804400      -0.84363900       1.18029700
H        1.75660000      -1.51838700       0.39555700
H        2.00922800       2.28895000      -0.59492400
