12
Properties=species:S:1:pos:R:3 pbc="F F F"
N       -2.05055100      -0.05622900       0.07089500
N       -0.63047100      -0.02651600       0.01554300
C        0.13844200       1.10342100       0.08256000
C        1.46958200       0.69998000      -0.00262500
C        1.47946800      -0.70781600      -0.11787400
C        0.15351400      -1.13619400      -0.10578400
H       -2.42568100       0.64301600      -0.57851500
H       -2.36022400       0.20767300       1.01396700
H       -0.29885400       2.08928300       0.17601800
H        2.32976500       1.35296700       0.01703900
H        2.34966300      -1.34174700      -0.20282100
H       -0.27356000      -2.12832600      -0.16841300
