19
Properties=species:S:1:pos:R:3 pbc="F F F"
C        2.04683800       0.60914400      -0.17208700
C        0.96569100       0.28643400       0.82301500
C        1.25259300       0.11706200       2.12525500
C       -0.44405100       0.16226100       0.33979600
C       -0.95664900       0.94372200      -0.84419500
C       -0.78539900      -0.53731500      -0.95873900
C       -1.99193000      -1.44753500      -1.03091600
H        3.02843800       0.57751700       0.29330600
H        1.90465400       1.60593800      -0.59223500
H        2.04139600      -0.09247500      -1.00664700
H        2.26731100       0.20059800       2.49229000
H        0.47490100      -0.10540900       2.84524300
H       -1.16841700       0.01688900       1.14244500
H       -0.25851300       1.58207200      -1.37650000
H       -1.96582900       1.33808000      -0.77750200
H        0.06331900      -0.87163000      -1.55764400
H       -2.80017400      -1.07908500      -0.40290700
H       -1.74231100      -2.45547300      -0.70076900
H       -2.36733000      -1.51965800      -2.05185500
