21
Properties=species:S:1:pos:R:3 pbc="F F F"
C       -1.16351800      -1.81115500      -2.03265700
C       -0.14407100      -2.08387600      -0.97132100
C        0.13759600      -1.31840800       0.09225900
C       -0.52033700      -0.01801900       0.47137000
C        0.48352800       1.02752000       1.01308000
C        1.50860800       1.42654300      -0.05532700
C       -0.25276100       2.25899500       1.55531300
H       -0.71805600      -1.89870900      -3.02437600
H       -1.60169200      -0.82072300      -1.94150100
H       -1.97358500      -2.54188700      -1.98467900
H        0.41200800      -3.01397200      -1.09285700
H        0.90802300      -1.66894100       0.78050200
H       -1.26922100      -0.21274200       1.25277700
H       -1.06908700       0.40180000      -0.37703000
H        1.03145600       0.56435400       1.85029400
H        1.02246100       1.90121600      -0.90543900
H        2.04532700       0.55388500      -0.42081500
H        2.23603000       2.12820100       0.34838300
H       -0.81380900       2.75831400       0.76763700
H        0.44967900       2.97865500       1.97072500
H       -0.95381200       1.98094100       2.34007500
