18
Properties=species:S:1:pos:R:3 pbc="F F F"
N       -2.64188600      -0.62225000       0.11118600
C       -1.18184000      -0.65695600      -0.04454300
C       -0.51316900       0.29222700       0.95400100
C        1.02020200       0.23202800       0.95409300
C        1.69808200       0.82378000      -0.28984800
N        1.57978000      -0.05077300      -1.45971000
H       -3.08705300      -1.22978400      -0.57160400
H       -2.99201800       0.32285400      -0.02355000
H       -0.87282100      -0.39663000      -1.07472500
H       -0.83630900      -1.68591000       0.13386400
H       -0.87205000       0.05266100       1.96084900
H       -0.83789800       1.32008800       0.75275800
H        1.34794400      -0.80560200       1.08513900
H        1.38514700       0.77960900       1.83060800
H        2.76372000       1.02668400      -0.04560500
H        1.25157100       1.79896700      -0.53319800
H        1.97385500      -0.96707800      -1.26196100
H        2.07100900       0.34883300      -2.25512100
