15
Properties=species:S:1:pos:R:3 pbc="F F F"
C       -2.02119300       1.10989900       1.00217200
C       -0.50526200       1.01975200       0.91824700
C       -0.03653500      -0.06775800      -0.06115800
O       -0.81044400      -0.78202300      -0.70274700
N        1.33646600      -0.19534900      -0.17827300
C        1.94218000      -1.17346100      -1.05848800
H       -2.32780400       1.88536300       1.70100600
H       -2.44125700       0.16336400       1.33126400
H       -2.44363400       1.33754900       0.02728600
H       -0.08139300       0.81392400       1.90872300
H       -0.08381000       1.98386400       0.60850900
H        1.94755300       0.40732000       0.36400300
H        1.13979000      -1.72162200      -1.55131900
H        2.57211500      -1.88169700      -0.50262700
H        2.57158700      -0.69503100      -1.82158600
