16
Properties=species:S:1:pos:R:3 pbc="F F F"
N       -0.64931700      -1.28145200       1.61342500
C       -1.20763800      -1.10431800       0.27218800
C       -0.51943200       0.00838900      -0.51241800
C       -0.20185600       1.34246600       0.12284200
C        0.91008100       0.41476600      -0.24263500
N        1.80711900       0.77812400      -1.33210600
H       -1.12607700      -2.03661300       2.09903900
H       -0.75195800      -0.43077000       2.16127700
H       -2.30281200      -0.90518400       0.30614000
H       -1.09561500      -2.05356000      -0.27600400
H       -0.84496500       0.06839300      -1.55276400
H       -0.43712600       1.48133200       1.17380200
H       -0.35015200       2.22885400      -0.48631200
H        1.41831200      -0.09317900       0.58046300
H        1.32572800       1.34873500      -2.02199500
H        2.17312000      -0.05253500      -1.79273900
