12
Properties=species:S:1:pos:R:3 pbc="F F F"
C       -3.24174800      -0.15459900      -0.44403300
C       -1.78740900      -0.12507500      -0.38976300
C       -0.57809800      -0.07720300      -0.28017600
C        0.85734700      -0.07065900      -0.29362500
N        1.55064600       0.24778000       0.76128200
N        2.92954100       0.27202900       0.62527100
H       -3.61216200       0.41466300      -1.29919000
H       -3.67231100       0.27583800       0.46195500
H       -3.60784600      -1.17921500      -0.53911000
H        1.34310100      -0.35804200      -1.24743700
H        3.40185000       0.07591300       1.50760800
H        3.28550500      -0.30260000      -0.14412100
