16
Properties=species:S:1:pos:R:3 pbc="F F F"
C       -1.27209900       0.11062200       2.52488300
C       -0.86916500      -0.86572000       1.42162700
C       -0.34001900      -0.17171400       0.19427000
C        0.84285800      -0.44007800      -0.37173600
C        1.38123800       0.24482600      -1.60479800
O        0.42251100       1.04839700      -2.26374600
H       -1.66830400      -0.42403000       3.38582700
H       -2.03707600       0.80098000       2.17542200
H       -0.41946600       0.69864100       2.85653100
H       -1.74742400      -1.46507600       1.14375500
H       -0.12250100      -1.56975500       1.80271200
H       -0.97706700       0.59757200      -0.24323200
H        1.49108600      -1.19562600       0.07459900
H        1.78636200      -0.52208500      -2.30477000
H        2.23328800       0.89511700      -1.34007300
H       -0.37586400       0.52946900      -2.42627100
