14
Properties=species:S:1:pos:R:3 pbc="F F F"
C       -1.04332100      -0.92301000       1.59913200
C       -0.13935800      -1.23321400       0.67022800
C        0.29120600      -0.33005000      -0.47885300
C        0.00950200       1.14065800      -0.22740000
C       -0.94031300       1.83970000      -0.84751600
O        1.69043200      -0.52540900      -0.73475200
H       -1.31621600      -1.62893700       2.37476600
H       -1.53939600       0.04119900       1.60856300
H        0.33818400      -2.21296900       0.69007600
H       -0.23476000      -0.65666600      -1.39792300
H        0.64343900       1.63365800       0.51121400
H       -1.58524400       1.38271300      -1.59032400
H       -1.10096900       2.88964700      -0.63253400
H        2.20520700      -0.20987600       0.02062600
