14
Properties=species:S:1:pos:R:3 pbc="F F F"
C       -0.05577200       0.35979500       1.97632900
C       -0.46385800       0.29153100       0.51982800
N        0.31213700       1.04890000      -0.47287600
C        0.38419000      -0.41907500      -0.48666500
C       -0.22054500      -1.13645000      -1.67490800
H       -0.40745800       1.28160800       2.43928000
H        1.02686100       0.32437000       2.08321500
H       -0.47625100      -0.47170800       2.54181300
H       -1.54538900       0.31952500       0.34357100
H        1.15134700       1.44413700      -0.04231900
H        1.32536800      -0.84860200      -0.11880800
H       -1.12842400      -0.63872700      -2.00639500
H       -0.46994700      -2.16761300      -1.42415400
H        0.47485200      -1.16010100      -2.51357000
