13
Properties=species:S:1:pos:R:3 pbc="F F F"
C       -2.04234500      -0.62349600       0.94591700
C       -0.52399300      -0.51911700       0.92463300
C       -0.02563000       0.41548300      -0.20518300
C        1.45167800       0.56008300      -0.15996600
N        2.59797300       0.65217500      -0.12757500
O       -0.42141600      -0.06051700      -1.48656500
H       -2.37064300      -1.32017200       1.71355000
H       -2.41643900      -0.97128200      -0.01380000
H       -2.49549700       0.34414700       1.15123000
H       -0.08449500      -1.51293200       0.78990300
H       -0.15846000      -0.14486800       1.88599200
H       -0.47635800       1.41853100      -0.08564100
H        0.02915600      -0.89222500      -1.68809100
