13
Properties=species:S:1:pos:R:3 pbc="F F F"
C        0.98701600       1.50149600       0.59290200
C        0.42576100       0.41958200      -0.34753500
C       -1.04597100       0.46403500      -0.37283800
N       -2.19455600       0.51912600      -0.40646900
C        0.96295900      -0.95498000       0.00886100
C        0.22413400      -2.03096800       0.27346700
H        2.07483700       1.48697100       0.57620300
H        0.66140000       1.33458200       1.61667100
H        0.65250600       2.49012100       0.28680100
H        0.76775000       0.65630500      -1.37299300
H        2.05047700      -1.02365800       0.03712100
H       -0.85878600      -1.99426000       0.25875100
H        0.69031000      -2.97893400       0.51358600
