15
Properties=species:S:1:pos:R:3 pbc="F F F"
C       -2.86656900      -0.86973900      -0.20224200
N       -1.41097800      -0.86418300      -0.10867400
C       -0.85209800       0.47047600       0.14418600
C        0.61788100       0.45646200       0.12749200
C        1.82678800       0.49054200       0.10742500
C        3.28373100       0.50968400       0.08975400
H       -3.21271600      -1.87677000      -0.44321900
H       -3.25680500      -0.17948500      -0.97317100
H       -3.30814300      -0.57490800       0.75452500
H       -0.99992000      -1.25673400      -0.95817800
H       -1.20654400       0.83071000       1.12582200
H       -1.21288900       1.21757400      -0.60103400
H        3.68616500      -0.49365200       0.23852200
H        3.67270700       1.15146500       0.88211200
H        3.65659100       0.88653800      -0.86434600
