23
Properties=species:S:1:pos:R:3 pbc="F F F"
C       -3.07885600      -1.30716100      -0.04225200
C       -1.55775600      -1.34135100       0.04419400
C       -0.93666700       0.05817800      -0.04420400
C        0.60978200       0.05765200      -0.07822000
C        1.12580800       1.47144700      -0.44010500
C        2.61875000       1.52931300      -0.73961800
C        1.20835800      -0.44052500       1.24384300
H       -3.49423600      -2.31093300       0.01888600
H       -3.40792400      -0.86466000      -0.98050600
H       -3.50420200      -0.71877300       0.76833200
H       -1.16137000      -1.96794600      -0.76233800
H       -1.26115000      -1.82308800       0.98135200
H       -1.28589900       0.66613700       0.79741900
H       -1.30766600       0.55155600      -0.94979900
H        0.93034400      -0.63196900      -0.87638700
H        0.88948500       2.16529400       0.37362100
H        0.57580400       1.83070800      -1.31709200
H        3.21303000       1.25927900       0.13059900
H        2.90973800       2.53378800      -1.04067300
H        2.88245600       0.84902200      -1.54718400
H        0.92664800       0.20955500       2.07005000
H        2.29462700      -0.46751700       1.19543800
H        0.86380700      -1.44577700       1.47645600
