19
Properties=species:S:1:pos:R:3 pbc="F F F"
C       -0.59022700      -1.11778200      -1.59041300
C       -0.79232300      -0.87143000      -0.10057200
C        0.07160500      -1.71194800       0.86277000
C        0.63337900      -0.43378700       1.49425600
C       -0.19710900       0.43756200       0.51915300
C        0.59386400       1.33469900      -0.38941000
C        0.31339100       2.62193800      -0.60085900
H       -0.98909700      -2.09103300      -1.87339200
H        0.46400800      -1.10146500      -1.85956000
H       -1.10058800      -0.36041400      -2.18286200
H       -1.86421800      -0.95649200       0.13137700
H        0.82358500      -2.32970600       0.36594000
H       -0.49316000      -2.35340000       1.54454900
H        1.71539400      -0.31822000       1.39471000
H        0.37435300      -0.29319400       2.54683200
H       -0.96729900       1.02908600       1.03415500
H        1.45282800       0.88630400      -0.89012800
H       -0.52929600       3.10369500      -0.11779400
H        0.91800700       3.22933500      -1.26337300
