15
Properties=species:S:1:pos:R:3 pbc="F F F"
C       -2.42181900      -1.09426000       0.95860000
C       -0.90066100      -1.10857100       0.93312200
N       -0.38411900      -0.13111100      -0.03378200
C        1.07843200      -0.02367000      -0.01897000
C        1.54972100       1.04872400      -0.90236500
C        1.97026300       1.93465700      -1.60741800
H       -2.80249200      -1.82994600       1.66334000
H       -2.83072500      -1.32228600      -0.02311100
H       -2.79842200      -0.11710100       1.25666900
H       -0.53827700      -2.11031300       0.65401600
H       -0.50738800      -0.91671700       1.95568200
H       -0.80460200       0.78575000       0.13339400
H        1.51936100      -0.98213400      -0.34316600
H        1.47428900       0.16092100       1.00692900
H        2.32146700       2.70831800      -2.24509500
