17
Properties=species:S:1:pos:R:3 pbc="F F F"
C        1.35411000       1.37844000      -0.50816300
C        0.81888700      -0.05721300      -0.42956200
C       -0.66099700      -0.08120800      -0.46719000
C       -1.86967400      -0.10968000      -0.50423900
C       -3.32626700      -0.13574800      -0.54827600
C        1.32596400      -0.84700100       0.76670900
C        2.24931500      -0.44674200       1.63982100
H        2.44001000       1.38134400      -0.57730100
H        1.06729600       1.95408100       0.36853100
H        0.95865700       1.88284800      -1.38666200
H        1.16790500      -0.59621600      -1.33449000
H       -3.73348600      -0.60083000       0.35129600
H       -3.67950300      -0.70221300      -1.41196900
H       -3.72985800       0.87588800      -0.61883200
H        0.88226900      -1.83612200       0.88289700
H        2.71918200       0.52742600       1.57846400
H        2.55950100      -1.09128900       2.45346300
