15
Properties=species:S:1:pos:R:3 pbc="F F F"
C       -2.14310700       0.74535200       0.67449200
C       -0.62232600       0.70776600       0.63793700
C       -0.10227200      -0.36377100      -0.32721400
O       -0.85717200      -1.09160200      -0.98115700
N        1.26639500      -0.51927300      -0.46901800
C        2.31203200       0.22367500       0.19726000
H       -2.49646900       1.50977800       1.36345400
H       -2.54095900      -0.21508600       0.99061400
H       -2.54327500       0.95870500      -0.31293000
H       -0.22601200       0.51470400       1.64206700
H       -0.22837700       1.68673400       0.33953300
H        1.56022600      -1.24288100      -1.12103700
H        1.88619700       0.96801300       0.86846000
H        2.95606000       0.74698800      -0.52403700
H        2.95925800      -0.43735600       0.79140000
