11
Properties=species:S:1:pos:R:3 pbc="F F F"
C        1.04634200       0.84938100       0.23003700
C        1.60250800      -0.55799100       0.41358000
O        0.27925400      -1.09233900       0.62933800
C       -0.32809500       0.21103600       0.47657000
C       -1.29861700       0.26762100      -0.63034400
N       -2.05944500       0.34889500      -1.48985700
H        1.18849200       1.28617200      -0.76067500
H        1.35357700       1.58162100       0.98092900
H        2.25426400      -0.71328400       1.29150600
H        2.08683400      -1.00893900      -0.46978100
H       -0.83391800       0.53059200       1.41325500
