17
Properties=species:S:1:pos:R:3 pbc="F F F"
C        0.80948700       1.81921200       1.62478400
N       -0.02263000       0.65704100       1.31745000
C       -0.05345900       0.31635300      -0.09916100
C        0.99816800      -0.60851800      -0.64051400
C       -0.42157000      -1.08652400      -0.48764100
C       -1.27083500      -1.34905600      -1.71329800
H        0.76036400       2.03217000       2.69521600
H        0.50126500       2.73144400       1.08187200
H        1.85135900       1.61686800       1.36304200
H       -0.97334800       0.81233700       1.66352400
H       -0.38435500       1.12042300      -0.78184100
H        1.73611000      -0.99876700       0.05181200
H        1.36747900      -0.42853600      -1.64525900
H       -0.59425500      -1.77850600       0.33752600
H       -1.07883500      -0.60991500      -2.48841100
H       -2.33311100      -1.31197600      -1.47160800
H       -1.06500800      -2.33362500      -2.13303900
