19
Properties=species:S:1:pos:R:3 pbc="F F F"
C       -3.47326900       0.86964400      -0.09009500
C       -2.26875400       0.90121500      -0.17794700
C       -0.80989800       0.94437200      -0.28518000
C       -0.13919900      -0.30361400       0.31033500
C        1.40453500      -0.24348300       0.27545000
C        2.00045700      -1.38883400       1.10547100
C        1.95345500      -0.27196500      -1.15742000
H       -4.53214500       0.84190600      -0.01380600
H       -0.44188600       1.84527300       0.22442500
H       -0.53723100       1.05490200      -1.34264700
H       -0.48541100      -1.19369100      -0.22372100
H       -0.46604300      -0.42052500       1.34828700
H        1.71708800       0.70636400       0.73980500
H        1.72167200      -2.35621200       0.69269700
H        1.64565600      -1.34860600       2.13334500
H        3.08683700      -1.33203400       1.12019100
H        1.65079300      -1.18111100      -1.67321000
H        3.04084700      -0.23713600      -1.15235100
H        1.59586000       0.57685500      -1.73669600
