21
Properties=species:S:1:pos:R:3 pbc="F F F"
C       -1.23599400      -1.97729600       1.73470200
C       -1.08630400      -0.49814200       1.40050600
C       -0.76021300      -0.25289400      -0.07840300
C        0.64729900      -0.64042400      -0.57798300
C        0.77833900       0.74595600      -1.24247600
C       -0.49899100       1.20485100      -0.50867000
C        2.05790500       1.53255800      -0.98502200
H       -1.46083500      -2.11680600       2.79020000
H       -0.32144600      -2.52310200       1.51177400
H       -2.04116600      -2.42891400       1.15818900
H       -0.30184900      -0.05935000       2.02663300
H       -2.01363100       0.02785300       1.65509400
H       -1.53931700      -0.71442400      -0.70231300
H        0.70268400      -1.50262600      -1.24847400
H        1.36156100      -0.79295200       0.23457400
H        0.60562500       0.68009000      -2.32639600
H       -1.27005600       1.67071800      -1.12880800
H       -0.29184400       1.86863400       0.33432100
H        2.26319500       1.61224700       0.08073400
H        1.98176900       2.54170300      -1.38674700
H        2.91307300       1.04928000      -1.45470300
