17
Properties=species:S:1:pos:R:3 pbc="F F F"
C       -1.39459900      -0.50449100       1.63234900
C       -1.67274300      -0.77560700       0.16049900
C       -0.95849000       0.19586000      -0.79913600
C        0.55235500       0.05266900      -0.79282300
C        1.20437000      -0.69973400      -1.69879500
C        1.27873200       0.77103400       0.22507000
C        1.87566500       1.40444100       1.06888800
H       -1.95324000      -1.19631500       2.25955200
H       -1.68627500       0.50745800       1.90564300
H       -0.33815300      -0.62068400       1.86065000
H       -2.75075800      -0.70623800      -0.02294100
H       -1.38367900      -1.80268200      -0.08524500
H       -1.22984500       1.22397100      -0.53887200
H       -1.32604100       0.01296100      -1.81425900
H        0.66253700      -1.23246700      -2.47068100
H        2.28235900      -0.79524100      -1.68129200
H        2.41135300       1.94420500       1.81113000
