19
Properties=species:S:1:pos:R:3 pbc="F F F"
C       -2.70459400       1.87526600       0.37641900
C       -1.21650800       1.72752000       0.43090400
C       -0.50274300       0.97010700      -0.41099000
C        0.99689500       0.85135100      -0.36969800
C        1.52532300      -0.55723200      -0.24928300
C        0.78765500      -1.64499300       0.00438900
C        1.34948300      -3.02626900       0.12713700
H       -2.98694400       2.91854300       0.22459000
H       -3.16255400       1.55820700       1.31489700
H       -3.13551600       1.28548400      -0.42932300
H       -0.70473600       2.28345300       1.21703800
H       -1.01469800       0.41524000      -1.19737200
H        1.39610300       1.45789800       0.45542600
H        1.41733400       1.29701400      -1.28565100
H        2.60435900      -0.66375400      -0.36961300
H       -0.28950900      -1.54701800       0.13379800
H        2.42889400      -3.03249400      -0.00730000
H        0.90953000      -3.69396800      -0.61590600
H        1.12466800      -3.45310600       1.10615500
