17
Properties=species:S:1:pos:R:3 pbc="F F F"
C        0.37369200      -1.75299300       0.70084800
C       -0.12558400      -0.32026100       0.92976700
C       -1.60043900      -0.28483100       1.01086800
C       -2.80526300      -0.25436100       1.09376100
C        0.36931700       0.69238600      -0.09329300
C        1.23936400       0.45118300      -1.08069600
C        1.71214000       1.49237600      -2.04613600
H        1.46055400      -1.79275700       0.73894600
H        0.05167500      -2.13362700      -0.26568600
H       -0.01519000      -2.41629400       1.47014500
H        0.24750500       0.01074800       1.92051900
H       -3.86535100      -0.23161600       1.15637500
H       -0.03138800       1.69935300       0.02372700
H        1.64656700      -0.54955300      -1.22095300
H        1.26897400       2.46326700      -1.83707000
H        1.45935400       1.21441500      -3.07069400
H        2.79793600       1.59507500      -2.00602300
