15
Properties=species:S:1:pos:R:3 pbc="F F F"
C        0.40864600      -1.60197500       1.83091000
O        0.06382500      -0.54031300       0.96436900
C        0.40912000      -0.78360200      -0.39443100
C        0.03269200       0.41959200      -1.24123600
C       -1.16677100       1.24179700      -0.91775700
N        0.17792900       1.75762800      -0.66057800
H        0.11357000      -1.32347800       2.84705400
H        1.49596500      -1.79955000       1.81319000
H       -0.10998700      -2.53684200       1.54960300
H       -0.10555300      -1.70167100      -0.76021600
H        1.49961400      -0.99278800      -0.47540800
H        0.33759700       0.34789800      -2.29298500
H       -1.76895300       0.96610400      -0.05140500
H       -1.71224100       1.73817900      -1.72273900
H        0.39176900       1.66638900       0.33708500
