11
Properties=species:S:1:pos:R:3 pbc="F F F"
C       -1.60037400      -0.03589700      -0.26207800
C       -0.26716600       0.09473200      -0.09565900
C        0.39985000       1.27576600      -0.60593300
N        0.94251700       2.21187200      -1.00501800
C        0.60168800      -0.88668300       0.58322700
C        0.19739400      -2.04907900       1.11093300
H       -2.17637400       0.72518800      -0.77283000
H       -2.12935400      -0.90449800       0.11106400
H        1.65460900      -0.61685500       0.64453100
H       -0.83867300      -2.36691800       1.07640500
H        0.90382000      -2.71306200       1.59301200
