14
Properties=species:S:1:pos:R:3 pbc="F F F"
C       -0.07086400      -0.02729800       2.07084300
C       -0.52292800      -0.02761400       0.60796100
C       -0.09709100       1.21560300      -0.19878600
C        0.36620100       0.58342700      -1.49069100
N        0.41674300      -0.71250700      -1.44464200
N        0.08113600      -1.15583500      -0.15864400
H       -0.52804800       0.79544200       2.61691000
H        1.00928800       0.07612100       2.14757200
H       -0.35503900      -0.95478700       2.56486600
H       -1.63040400      -0.12448600       0.58825700
H        0.71576300       1.76761100       0.29286700
H       -0.91349200       1.93320400      -0.34391900
H        0.65587100       1.12681100      -2.38953400
H       -0.49100200      -2.00623200      -0.18997200
