19
Properties=species:S:1:pos:R:3 pbc="F F F"
C       -0.80096600       1.05571900       1.98683500
C       -1.17212500      -0.15920600       1.13673100
C       -0.59271100      -0.09992000      -0.26702400
C       -1.40790400       0.16706100      -1.30613300
C        0.86185000      -0.33499700      -0.45769500
C        1.66335600      -0.76055000       0.53847300
C        1.44235600      -0.09469300      -1.82861600
H       -1.23627800       0.97367500       2.98101800
H       -1.16992900       1.97283600       1.53313100
H        0.27714600       1.14772000       2.09559900
H       -2.26220800      -0.22525300       1.06872700
H       -0.83687200      -1.07163900       1.64255200
H       -2.46729400       0.33213700      -1.15121700
H       -1.04639000       0.22076500      -2.32517700
H        1.29110800      -0.96355900       1.53404500
H        2.71943900      -0.92699800       0.36504500
H        1.00620200      -0.77230700      -2.56335300
H        2.51836800      -0.24944600      -1.82724400
H        1.24356900       0.92158800      -2.16854300
