14
Properties=species:S:1:pos:R:3 pbc="F F F"
C       -2.07565200       0.06511100      -0.12654300
C       -0.58098200      -0.02048400       0.08936500
N       -0.12375300      -1.04616600       0.75379400
N        1.22692900      -1.10608100       1.08027600
C        0.21357700       1.12353700      -0.45422700
C        1.27893300       1.04213000      -1.25877900
H       -2.58134800      -0.78749200       0.31883900
H       -2.32182200       0.09317800      -1.18947400
H       -2.48356600       0.97577000       0.31649400
H        1.54557800      -2.06969500       1.17463900
H        1.83492500      -0.54974500       0.47829400
H       -0.17810600       2.11532700      -0.21387400
H        1.68263900       0.09108100      -1.58773000
H        1.76421700       1.93554300      -1.63457900
