11
Properties=species:S:1:pos:R:3 pbc="F F F"
C       -0.70027400       0.41910100       0.42251800
C       -0.98554600      -0.75720700       1.24429200
N       -1.22820400      -1.68069300       1.88573000
C        0.15477300       0.08511200      -0.80295600
C        0.88811100       1.14583700      -1.52743800
O        1.56005400       0.24893000      -0.65498600
H       -0.19139500       1.16937200       1.03694900
H       -1.65771900       0.85783100       0.10818600
H       -0.13927700      -0.82216100      -1.35330500
H        0.83886800       2.18540700      -1.17853200
H        1.12412800       1.02590400      -2.59201400
