16
Properties=species:S:1:pos:R:3 pbc="F F F"
C       -0.71907000      -0.27486800      -2.08972500
C        0.57997600      -0.65451400      -1.45095000
C        1.13052800      -0.10882900      -0.35691900
C        0.54780600       0.99117900       0.49228900
C       -0.07293500       0.44583400       1.79472000
O       -1.16142000      -0.41471300       1.52037700
H       -0.55993500       0.03415800      -3.12378200
H       -1.21809500       0.53470500      -1.56476200
H       -1.39671100      -1.12973900      -2.11823100
H        1.12564300      -1.45452400      -1.95158500
H        2.08505800      -0.50888800      -0.01436600
H       -0.21268200       1.54725600      -0.06244400
H        1.33892800       1.70464000       0.75176100
H       -0.44485700       1.27516600       2.41677300
H        0.70117700      -0.08807400       2.38808000
H       -0.92499600      -0.98981600       0.77905600
