13
Properties=species:S:1:pos:R:3 pbc="F F F"
C       -2.77104700       0.14681000      -0.31400500
N       -1.32536400       0.15860200      -0.33548000
C       -0.56101100      -0.32477600       0.68936600
C        0.80900000      -0.34444100       0.73133000
C        1.69507900       0.15160900      -0.32058700
O        2.91199200       0.12888800      -0.27289400
H       -3.14603800       0.58337400      -1.23867200
H       -3.17367500       0.72859000       0.52669600
H       -3.17196700      -0.87281200      -0.23008100
H       -0.86458300       0.54404700      -1.15378400
H       -1.13503400      -0.72101500       1.52956500
H        1.27418500      -0.76260400       1.61793400
H        1.16659900       0.58389100      -1.23675800
