19
Properties=species:S:1:pos:R:3 pbc="F F F"
C        1.64933000      -0.02038500       1.91686800
C        0.56109300      -1.03675900       1.74521000
C       -0.37280700      -1.13543300       0.77664100
C       -0.63406800      -0.30137300      -0.40926900
C       -1.65913200      -0.65151900      -1.21503100
C        0.23917700       0.90552200      -0.68801900
C       -0.11531100       1.70127900      -1.93635500
H        2.22884400      -0.23862200       2.81067200
H        1.25310200       0.99066300       2.02130200
H        2.33963000      -0.01181600       1.07216800
H        0.52862400      -1.80212900       2.52080800
H       -1.06457500      -1.97375900       0.87203600
H       -2.26577200      -1.52028900      -0.98906400
H       -1.91275300      -0.08931000      -2.10318700
H        1.28236800       0.57479900      -0.76199800
H        0.20305000       1.57371600       0.18101200
H       -0.03941100       1.08962900      -2.83260600
H        0.56474600       2.54332300      -2.04920700
H       -1.12754100       2.09581400      -1.88220400
