13
Properties=species:S:1:pos:R:3 pbc="F F F"
C       -1.17954900       1.36442900      -1.80323600
C       -1.63819700       0.69897700      -0.74314900
C       -0.81895800      -0.06222600       0.26210300
C        0.69131000      -0.05759900      -0.00313800
C        1.42474500      -0.84842500       0.98494200
N        2.00446200      -1.47278500       1.75818000
H       -1.85955600       1.88022700      -2.46943600
H       -0.12388800       1.41802600      -2.04090900
H       -2.71219300       0.68318000      -0.55578600
H       -1.18037800      -1.09768700       0.29949500
H       -1.01481700       0.34812900       1.26090000
H        1.07810000       0.96796900       0.01300100
H        0.90539200      -0.46128900      -0.99965300
