17
Properties=species:S:1:pos:R:3 pbc="F F F"
C        0.12370100      -1.54725500       1.21084300
C       -0.31333800      -0.11044800       1.47141000
C       -0.14431200       0.86199000       0.27692300
C       -0.91268800       0.43172800      -1.01793700
N       -0.13960000      -0.41072500      -1.93678100
O        1.24266500       1.06665600      -0.00763500
H        0.04791200      -2.13786700       2.12125800
H        1.15898000      -1.59470000       0.87457700
H       -0.49864000      -2.02322300       0.45579700
H        0.25577700       0.28637900       2.31792400
H       -1.36433700      -0.10753900       1.78025400
H       -0.53730500       1.84607000       0.59739300
H       -1.83778200      -0.09367400      -0.74299500
H       -1.21435800       1.33324600      -1.56780600
H        0.14519800      -1.27806400      -1.48965200
H        0.69294300       0.08757400      -2.24248900
H        1.66731600       0.20754000      -0.13315200
