19
Properties=species:S:1:pos:R:3 pbc="F F F"
C       -2.17002000      -1.50746300      -1.37737200
C       -1.48355800      -0.39286100      -1.63112400
C       -1.38986500       0.78190700      -0.69741000
C        0.06251700       1.22103100      -0.42346300
C        0.86705400       0.17798100       0.30486600
C        1.55970400       0.41552600       1.42553800
C        2.37208700      -0.61288600       2.14766800
H       -2.21370600      -2.31677200      -2.09591900
H       -2.70547900      -1.64191200      -0.44461000
H       -0.95366400      -0.29460200      -2.57978400
H       -1.89704800       0.55403000       0.24454500
H       -1.92479400       1.63134100      -1.14478800
H        0.05691500       2.15507900       0.14847000
H        0.54548000       1.44653700      -1.38507300
H        0.87309100      -0.82100600      -0.13048400
H        1.54780200       1.41498800       1.86168000
H        2.32788600      -1.57861800       1.64949600
H        2.01754000      -0.73982300       3.17211800
H        3.41847000      -0.30865700       2.21213800
