19
Properties=species:S:1:pos:R:3 pbc="F F F"
C       -1.01102200      -1.06538300       2.23997200
C       -1.42671300      -1.10348400       0.77554700
C       -0.69640400      -0.13571600      -0.15163000
C       -0.27746800       1.23336000       0.27012600
C        0.77557700       0.18624700      -0.00198400
C        1.65764900       0.27632700      -1.19717900
C        1.32301300       0.80197700      -2.37988700
H       -1.59788700      -1.77787600       2.81588300
H       -1.16696000      -0.07999500       2.67392600
H        0.03844900      -1.32415500       2.36355800
H       -2.50329000      -0.90139700       0.70718900
H       -1.29267800      -2.12302800       0.39311900
H       -1.03319300      -0.21187700      -1.18784300
H       -0.43054500       1.52956100       1.30323700
H       -0.37688400       2.03918700      -0.45085500
H        1.26526200      -0.22283300       0.88171100
H        2.65985200      -0.13449700      -1.07084000
H        0.34146400       1.22487800      -2.55859700
H        2.02861400       0.82205600      -3.20027800
