14
Properties=species:S:1:pos:R:3 pbc="F F F"
C       -0.34384300       1.34142300       1.41955600
O       -0.26894100      -0.07717900       1.42164900
C        0.82024300      -0.61058700       0.66765400
C        0.51484800      -0.74747100      -0.82530900
C       -0.84008300      -0.58145800      -1.38911900
O        0.14461400       0.43364800      -1.54727500
H       -1.18775100       1.63078400       2.05378900
H       -0.49968300       1.73992000       0.40599800
H        0.58033300       1.78574100       1.82972500
H        1.03517800      -1.61341200       1.07815000
H        1.72928400       0.00467600       0.82157400
H        1.22645500      -1.38694900      -1.37787600
H       -1.67545600      -0.31903800      -0.73023400
H       -1.12074600      -1.10491400      -2.31281000
