14
Properties=species:S:1:pos:R:3 pbc="F F F"
O       -2.27870900      -1.22538900      -0.82694800
C       -0.87631600      -1.11439400      -0.98391600
C       -0.35971000      -0.05906500      -0.01538500
O        1.06060800       0.03256400      -0.16495500
C        1.72356200       0.90776600       0.62463700
C        1.18831400       1.72409800       1.55207100
H       -2.62812100      -1.89841900      -1.42499200
H       -0.62583800      -0.83858900      -2.02949500
H       -0.38892800      -2.09209400      -0.78854000
H       -0.60829200      -0.32797500       1.02678600
H       -0.82092600       0.92358400      -0.22121700
H        2.80060100       0.88966300       0.42838700
H        0.12870800       1.75717500       1.75952000
H        1.83250300       2.37883300       2.12033300
