16
Properties=species:S:1:pos:R:3 pbc="F F F"
C        0.02312700       0.75218500       2.18592500
C       -0.30057600       0.77656100       0.70774900
C        0.62501000       1.45560500      -0.25834400
C        0.50510400      -0.04249200      -0.26479300
C       -0.17276900      -0.74605900      -1.43310300
O       -0.70126800      -2.00875800      -1.04930300
H       -0.31034400       1.66706800       2.67520200
H        1.09398900       0.65609700       2.35201700
H       -0.47069700      -0.08356100       2.68071800
H       -1.36459900       0.86362800       0.48235900
H        1.54167200       1.88784000       0.13006800
H        0.18644400       2.00371300      -1.08718500
H        1.35494200      -0.58367500       0.15829700
H        0.55055600      -0.88145000      -2.26847000
H       -1.00644500      -0.14244600      -1.82189600
H       -0.04475800      -2.49195100      -0.53128800
