19
Properties=species:S:1:pos:R:3 pbc="F F F"
C       -1.65060000       1.74608700       1.25421300
C       -2.07447800       0.28583900       1.16817600
C       -1.54184900      -0.42463600      -0.08861800
C       -0.04566700      -0.55318900      -0.11035000
C        0.72487500      -0.20559700      -1.15890200
C        2.18092400      -0.34089200      -1.23235900
C        2.98226900      -0.85929200      -0.28943800
H       -2.04555000       2.21138200       2.15506200
H       -2.01604500       2.30927300       0.39779400
H       -0.56697000       1.83655600       1.27455700
H       -3.16799300       0.22251300       1.17386200
H       -1.72843500      -0.24924200       2.05904900
H       -1.88657000       0.09764300      -0.98719300
H       -1.98447000      -1.43099800      -0.12523200
H        0.41775900      -0.97120800       0.78391300
H        0.24482300       0.21662300      -2.04190200
H        2.63462400       0.02002700      -2.15558000
H        2.59302900      -1.23682700       0.64876800
H        4.05295600      -0.91567100      -0.43942500
