19
Properties=species:S:1:pos:R:3 pbc="F F F"
C       -2.56003200       0.75145300       0.84680900
C       -1.06102600       0.58472400       0.71844300
C       -0.29352500       1.35694500      -0.31604300
C       -0.46430400      -0.12605400      -0.46765500
C        0.68917100      -1.09440300      -0.30577900
C        1.93258300      -0.74259900       0.45016600
C        1.98407300      -0.89301100      -1.03805300
H       -2.80887700       1.61744000       1.46032100
H       -3.01313200      -0.12238800       1.31495500
H       -3.02506600       0.88778200      -0.12724900
H       -0.54330400       0.43515800       1.66734300
H        0.68543100       1.73930600      -0.04441500
H       -0.85159400       1.99694100      -0.99236800
H       -1.17811800      -0.43025300      -1.23717600
H        0.36674600      -2.13429600      -0.20971300
H        2.39587300      -1.51634400       1.05444100
H        2.02469700       0.25786700       0.86042300
H        2.48754700      -1.76418600      -1.44587400
H        2.09816000       0.01063500      -1.62801300
