14
Properties=species:S:1:pos:R:3 pbc="F F F"
C       -1.70022000      -1.30471100      -0.81490600
C       -0.18677500      -1.19284600      -0.75390000
S        0.40067400       0.38021300       0.04312400
O        1.86030600       0.38889300      -0.00762200
O       -0.36719100       1.49598400      -0.50097500
C       -0.10768400       0.13232300       1.79987000
H       -1.98953800      -2.19762600      -1.36490700
H       -2.13127700      -0.44228400      -1.31723000
H       -2.13539500      -1.37057100       0.18036800
H        0.23325200      -1.20160300      -1.76362000
H        0.25072100      -2.04162100      -0.22153200
H        0.36843900      -0.74930200       2.22085500
H       -1.18646700       0.03087400       1.88261400
H        0.20263900       1.00111800       2.37586600
