14
Properties=species:S:1:pos:R:3 pbc="F F F"
N       -2.19904400      -0.66168200      -0.39924200
C       -0.73552900      -0.63854500      -0.45993600
C       -0.18953100       0.72693100      -0.02762300
C        1.34239300       0.76671500       0.00232300
O        1.87628200      -0.17488800       0.92078200
H       -2.55566900      -1.56820300      -0.69004100
H       -2.59633300       0.05147400      -1.00551300
H       -0.35805800      -0.87781300      -1.47663200
H       -0.34251600      -1.41821800       0.20604100
H       -0.58261300       0.97748300       0.96424100
H       -0.55826200       1.50375100      -0.70737800
H        1.68637200       1.79041100       0.26622100
H        1.75958900       0.52983700      -0.98843700
H        1.42653900      -0.08845300       1.77134600
