17
Properties=species:S:1:pos:R:3 pbc="F F F"
C        1.36129100      -0.26898100       1.41877500
C        0.76483000       0.72748000       0.40193500
C       -0.78209500       0.72895000       0.41834600
C       -1.45649100      -0.59710900       0.03828900
O       -1.22612400      -0.95578200      -1.31694000
N        1.26462300       0.48999700      -0.96539000
H        2.44581400      -0.18306900       1.44190900
H        1.11633100      -1.29640600       1.15849300
H        0.98798600      -0.07614600       2.42263000
H        1.09121800       1.74288500       0.69987900
H       -1.12017200       1.01415600       1.42092900
H       -1.13737300       1.51322800      -0.26012500
H       -2.55010800      -0.51020000       0.22117200
H       -1.09410400      -1.42528400       0.66570600
H       -1.32743700      -0.17354200      -1.87566300
H        0.93714900      -0.41654400      -1.29768100
H        2.28212300       0.48515600      -0.96807400
