21
Properties=species:S:1:pos:R:3 pbc="F F F"
C        1.18157000       2.11756400       1.56471300
C        0.36435300       0.84486300       1.36418000
C        0.01504700       0.60574500      -0.10053100
C        0.92246300      -0.19959100      -0.99068900
C       -0.43973100      -0.73648000      -0.62533400
C       -0.52228100      -1.93607800       0.30843500
C       -1.51221200      -0.73404100      -1.70773700
H        1.40488500       2.27356200       2.61832800
H        0.64091500       2.99061500       1.20400700
H        2.12486100       2.06523000       1.02501200
H       -0.55776500       0.91283700       1.95495700
H        0.92270500      -0.00856300       1.76060500
H       -0.45042000       1.46867200      -0.58163400
H        1.78837300      -0.66641400      -0.53188200
H        1.08519300       0.15084000      -2.00559500
H        0.31475800      -1.96524300       1.00144300
H       -0.51569600      -2.86584000      -0.25994200
H       -1.44340800      -1.91735200       0.89106600
H       -1.42592900       0.14276300      -2.34556800
H       -2.51013500      -0.73421400      -1.26962000
H       -1.43358700      -1.61878400      -2.33939800
