16
Properties=species:S:1:pos:R:3 pbc="F F F"
C       -1.35170000       0.81730400      -0.60483700
C        0.17069800       0.79372300      -0.43451100
C        0.63495700      -0.23480700       0.61014100
O       -0.05388800      -1.48239500       0.67717700
C       -0.14871100      -0.61713600       1.80384100
C        0.86991100       0.52819100      -1.77643900
H       -1.84566300       1.16602100       0.30035000
H       -1.72555800      -0.17775600      -0.83275100
H       -1.63445800       1.48364600      -1.41724300
H        0.49435700       1.78898900      -0.07992900
H        1.73302200      -0.33958300       0.67617700
H        0.36440300      -0.97486800       2.70678100
H       -1.14460900      -0.19377500       1.98400600
H        0.58456600      -0.44222200      -2.17517900
H        1.95223600       0.53873200      -1.65930100
H        0.60187600       1.28633100      -2.50949600
