19
Properties=species:S:1:pos:R:3 pbc="F F F"
C       -3.27626200       0.87918500       0.09045200
C       -1.75372100       0.89943300       0.03990300
C       -1.12791500      -0.33221100       0.70747200
C        0.40539300      -0.30903700       0.73752500
C        1.04431300      -0.45535700      -0.65311700
C        2.50649400      -0.47445900      -0.59891400
C        3.71369600      -0.49414900      -0.55610100
H       -3.69141300       1.75911300      -0.39618600
H       -3.63387500       0.86418700       1.11805500
H       -3.67363400      -0.00065400      -0.41157700
H       -1.38465200       1.80556900       0.53190400
H       -1.42725300       0.96168800      -1.00358300
H       -1.47181600      -1.23895100       0.19746900
H       -1.49602700      -0.40352300       1.73657700
H        0.76127300      -1.12323100       1.37668600
H        0.75279900       0.62022500       1.19993300
H        0.72436800       0.36711900      -1.30576700
H        0.69339200      -1.38121200      -1.12801500
H        4.77484800      -0.51076500      -0.51881200
