15
Properties=species:S:1:pos:R:3 pbc="F F F"
C       -2.25601000       0.61613900       0.61308100
C       -0.76201200       0.39891200       0.49724400
O       -0.11027000       1.00305600      -0.62603400
C       -0.16603800      -0.43032300      -0.58016400
C        1.18031500      -1.15532600      -0.43875900
N        2.16537100      -0.41825700       0.35454800
H       -2.47542900       1.60850600       1.00538700
H       -2.70493100      -0.11314900       1.28784200
H       -2.73892700       0.52439500      -0.35686800
H       -0.19893200       0.50593300       1.44047100
H       -0.85367000      -0.86120600      -1.32864400
H        1.02482700      -2.14652500       0.01244600
H        1.59302900      -1.33315400      -1.44392500
H        1.89831200      -0.40363400       1.33592700
H        2.20275500       0.54577300       0.02538000
