16
Properties=species:S:1:pos:R:3 pbc="F F F"
C       -1.34905900       1.00801800      -1.65019900
O       -1.56850800       0.53964800      -0.33386400
C       -1.08144700      -0.77867200      -0.07749900
C        0.45146100      -0.84519600       0.01226400
C        1.01990300       0.11018600       1.07114600
O        2.43508900       0.02622300       1.13522700
H       -1.87852400       1.95917100      -1.76227800
H       -1.73305100       0.29311100      -2.39981900
H       -0.27669700       1.17572700      -1.85606300
H       -1.44671000      -1.47398100      -0.86183400
H       -1.52835900      -1.09525200       0.87912100
H        0.89660500      -0.61496400      -0.96114900
H        0.74709300      -1.87572500       0.24727000
H        0.57846700      -0.11931900       2.06476800
H        0.76123800       1.14972500       0.83023700
H        2.70214100      -0.89147900       1.27457400
