18
Properties=species:S:1:pos:R:3 pbc="F F F"
C       -1.29222100       0.51747000       1.83968200
C       -1.53082700       0.12296900       0.38723700
C       -0.70454000       0.93981500      -0.61640100
C        0.80115100       0.63094400      -0.58561500
C        1.12330800      -0.77275400      -1.01977800
C        1.91208800      -1.61157100      -0.34749600
H       -1.91629700      -0.07371200       2.50664700
H       -1.52714100       1.56752000       2.00377100
H       -0.25513900       0.35990100       2.12716700
H       -2.59346300       0.25059900       0.15296200
H       -1.31163500      -0.94137800       0.25705900
H       -0.85312900       2.00849400      -0.42709000
H       -1.08403200       0.74858800      -1.62653100
H        1.20820200       0.81748500       0.41259700
H        1.30853900       1.33167000      -1.26367600
H        0.67958800      -1.09588700      -1.96248700
H        2.36871500      -1.32764900       0.59352000
H        2.12204000      -2.60687200      -0.71970400
