16
Properties=species:S:1:pos:R:3 pbc="F F F"
C       -1.07534200      -0.77802200       2.08393400
C       -1.33037300      -0.84428100       0.58316900
C       -0.81781600       0.38483500      -0.18471700
C        0.70198800       0.47945100      -0.22629800
C        1.40975600       1.11779600      -1.35671700
O        1.36862000      -0.29819500      -1.22214300
H       -1.48592000      -1.65396600       2.58160700
H       -1.53920700       0.10402700       2.52195100
H       -0.01070300      -0.73929700       2.30490900
H       -2.40708300      -0.94286400       0.40795600
H       -0.86551300      -1.74416900       0.17087700
H       -1.22631200       1.29685700       0.26973300
H       -1.19728100       0.35013800      -1.21056100
H        1.20966600       0.46775600       0.75317300
H        2.39972400       1.56975200      -1.21058700
H        0.84438600       1.51865100      -2.20814500
