17
Properties=species:S:1:pos:R:3 pbc="F F F"
N       -1.08852700       1.62131400      -0.51044000
C       -1.41208400       0.91846600       0.73215800
C       -0.77568500      -0.47507500       0.79819200
C        0.75888200      -0.47413700       0.88814200
C        1.45875700      -0.27502400      -0.46359800
O        1.12971400      -1.31129200      -1.37935800
H       -1.58658500       2.50616900      -0.56128100
H       -1.34134800       1.05622700      -1.31751200
H       -2.51081600       0.80690500       0.86272300
H       -1.06612400       1.52614800       1.58248500
H       -1.08229800      -1.05987600      -0.07527000
H       -1.18081400      -0.99077700       1.67641200
H        1.08873600      -1.43079200       1.31413600
H        1.09170200       0.30176900       1.58622800
H        2.55958300      -0.24717300      -0.30684000
H        1.16743800       0.67662000      -0.92607700
H        1.26328300      -2.16946500      -0.95642300
