12
Properties=species:S:1:pos:R:3 pbc="F F F"
C        0.00985900      -0.46924000       0.81481600
C        0.09675600       0.81487800       1.51106600
C        0.16390900       1.88037300       2.07645100
C       -0.50061200      -0.32048200      -0.61847500
C        0.42458100      -0.17895500      -1.76207000
O       -0.22743700      -1.41454700      -1.48816700
H       -0.65817000      -1.13664400       1.37624500
H        0.99673800      -0.94767900       0.80634800
H        0.22706700       2.81057000       2.58570800
H       -1.51945200       0.08787200      -0.71646700
H        1.50915100      -0.18096700      -1.59661800
H        0.09720600       0.32378400      -2.68060900
