19
Properties=species:S:1:pos:R:3 pbc="F F F"
C       -1.18710700      -1.97122200      -0.02576600
C       -1.83056600      -0.59282800      -0.13272000
C       -1.11786400       0.45648900      -0.95584300
C        0.18885500       0.72240500      -1.09160300
C        1.36975700       0.00972800      -0.48149000
C        1.73917300       0.45331800       0.91316200
C        1.09511500       1.36330000       1.64347800
H       -1.90220700      -2.67925700       0.38944600
H       -0.31976900      -1.96459200       0.62908900
H       -0.87815000      -2.34352600      -0.99987300
H       -1.99074300      -0.19623000       0.87976900
H       -2.83490700      -0.71297600      -0.55486800
H       -1.80033400       1.12705200      -1.48116500
H        0.45017700       1.57750700      -1.71653900
H        2.24568800       0.16422300      -1.12692300
H        1.21452700      -1.07562600      -0.46917700
H        2.62232200      -0.03520500       1.32883500
H        0.21484600       1.86999100       1.26667600
H        1.43436800       1.62149800       2.63941900
