11
Properties=species:S:1:pos:R:3 pbc="F F F"
O        1.46944600      -0.55677900      -0.10538500
N        0.56168100      -1.58436500      -0.23561900
C       -0.68433200      -1.23576500      -0.18323600
C       -1.30994800       0.13696600      -0.00298200
C       -0.42000300       1.27638100       0.20253800
C        0.16797300       2.31689100       0.38880400
H        2.35972200      -0.95424500      -0.15664300
H       -1.40556600      -2.05568000      -0.29016300
H       -2.00857200       0.08242600       0.84711600
H       -1.94380900       0.34073700      -0.88117600
H        0.78875400       3.16470700       0.54254300
