12
Properties=species:S:1:pos:R:3 pbc="F F F"
O       -1.75510600       1.50371200       1.50834400
C       -0.35664200       1.31868300       1.56278300
C        0.11570200       0.52631000       0.41930800
C        0.57868500      -0.11899100      -0.49396100
C        1.05442400      -0.93090600      -1.62830400
O        0.63387900      -2.27809900      -1.51756900
H       -2.05031300       2.02655800       2.26453300
H       -0.06975400       0.80849700       2.51073500
H        0.16494800       2.30310300       1.56986200
H        2.15657700      -0.91881300      -1.67541500
H        0.68461900      -0.48451000      -2.57918000
H       -0.26927100      -2.31031800      -1.17569900
