23
Properties=species:S:1:pos:R:3 pbc="F F F"
C       -1.40135500       1.74082300      -0.45202900
C        0.08098200       1.41045200      -0.57325600
C        0.41947400      -0.09058200      -0.74406800
C        0.06396600      -1.01458000       0.47045400
C       -1.39544600      -1.49136300       0.44889200
C        0.42139400      -0.39933200       1.82865100
C        1.91091900      -0.23237100      -1.08862100
H       -1.55383200       2.81709500      -0.51170700
H       -1.81313400       1.40415400       0.49644000
H       -1.97613200       1.27813300      -1.25187000
H        0.61699200       1.81421900       0.29139500
H        0.48259900       1.93878500      -1.44547200
H       -0.15324800      -0.46270600      -1.60925800
H        0.68481000      -1.91865000       0.35279600
H       -2.09475500      -0.68038700       0.63442900
H       -1.55698600      -2.24547300       1.21708200
H       -1.64434200      -1.93583200      -0.51286000
H       -0.21565700       0.45094900       2.06236900
H        1.45563600      -0.06179900       1.84521500
H        0.29570100      -1.13368400       2.62209700
H        2.53945500       0.10303600      -0.26549400
H        2.16679000       0.36262900      -1.96346600
H        2.16649900      -1.26875700      -1.30183200
