17
Properties=species:S:1:pos:R:3 pbc="F F F"
C       -2.81435900      -0.28088800      -1.93335900
C       -1.58397100       0.18084200      -1.65162300
C       -0.84556200      -0.16287500      -0.44880200
C        0.39597300       0.31260100      -0.18395500
C        1.20433200       0.01376200       1.00425800
C        0.79391000      -0.79362100       2.00501900
C        2.55847400       0.67307800       1.05573500
H       -3.32654300       0.00322300      -2.84393400
H       -3.33212000      -0.95156200      -1.25721900
H       -1.09175000       0.85431600      -2.35416500
H       -1.33436100      -0.83462200       0.25619000
H        0.85414200       0.98284500      -0.91246400
H       -0.17540900      -1.27602300       1.98683200
H        1.42837400      -0.98225800       2.86165400
H        3.16459100       0.38087300       0.19758900
H        3.09807600       0.40710700       1.96079400
H        2.46222100       1.75870600       1.02108100
