14
Properties=species:S:1:pos:R:3 pbc="F F F"
C       -1.48420300      -0.06851700       1.08241100
C        0.02479800      -0.17480500       1.06685700
C        0.86706000       0.69390300       0.14242500
C        0.74747900      -0.76832000      -0.13394200
O       -0.02465400      -1.09311400      -1.27451000
O        0.22404200       1.54956000      -0.76376300
H       -1.81274400       0.65985500       1.82238600
H       -1.94938600      -1.02429200       1.32973400
H       -1.85651600       0.24871500       0.11166800
H        0.47649500      -0.40584500       2.03423700
H        1.80424200       1.10920200       0.53375300
H        1.59529300      -1.45168000       0.04366400
H       -0.57814700      -1.86423800      -1.08993000
H       -0.20514000       0.98314700      -1.42584200
