16
Properties=species:S:1:pos:R:3 pbc="F F F"
C       -2.81440700       0.27057200       0.33600400
C       -1.40576900       0.39829100      -0.22739400
C       -0.50640800      -0.77691700       0.17507500
O        0.80052200      -0.64457000      -0.39150900
C        1.65512200       0.19881800       0.23137800
C        2.87557600       0.47775800      -0.25822200
H       -3.42946900       1.11598800       0.03678400
H       -2.80080900       0.23456600       1.42394900
H       -3.29790200      -0.63726500      -0.02003000
H       -0.95197100       1.33330900       0.11811800
H       -1.44750800       0.46054300      -1.31890600
H       -0.91999300      -1.72712700      -0.19580600
H       -0.43161300      -0.85137800       1.27693500
H        1.29641400       0.63339300       1.17763100
H        3.21748600       0.04223000      -1.18631600
H        3.53649900       1.14117100       0.27866400
