14
Properties=species:S:1:pos:R:3 pbc="F F F"
C       -2.16686500       0.21389600       0.55621600
C       -0.67016600      -0.01699700       0.56753900
C        0.22590500       0.75722500      -0.38798900
C        0.01302000      -0.70303200      -0.60465600
O        1.11029200      -1.53781100      -0.34060600
O        1.51900800       1.10502500       0.07456900
H       -2.44652600       1.05179300       1.19579300
H       -2.70315000      -0.66448300       0.91454700
H       -2.52127300       0.43195300      -0.44990500
H       -0.23781500      -0.21866200       1.54690300
H       -0.22923700       1.50188300      -1.06131700
H       -0.60506600      -1.05345500      -1.43942200
H        1.82922900      -0.96665300      -0.02447800
H        1.46807400       1.87336400       0.65951400
