16
Properties=species:S:1:pos:R:3 pbc="F F F"
C        1.00807200       0.06831100       1.79366200
C        0.08301600      -0.97681600       1.18348400
C        0.28390600      -1.16872200      -0.32646400
C       -0.19521500      -0.03591100      -1.23104500
C       -1.30918500       0.88253600      -0.91425100
O        0.04529100       1.31808000      -0.85022200
H        0.82126000       0.16799000       2.86126100
H        0.86073700       1.03742800       1.32474700
H        2.05039300      -0.21474200       1.66017400
H       -0.96054900      -0.71475000       1.38948300
H        0.25400700      -1.94100000       1.67573300
H       -0.23417300      -2.08503000      -0.64015600
H        1.34722300      -1.34614200      -0.52653700
H        0.00217800      -0.22366900      -2.30245900
H       -1.82622000       0.82899800       0.05149900
H       -1.90074900       1.32988900      -1.72429100
