14
Properties=species:S:1:pos:R:3 pbc="F F F"
C        0.50733500      -0.77192900      -1.78912600
C       -0.31641900      -0.08679300      -0.70700200
O       -1.28175000       0.60814500      -0.97663900
C        0.06729800      -0.28111700       0.77565600
O       -0.83820900       0.48727200       1.54919500
C        1.51986100       0.11608700       1.08061200
H       -0.02671500      -0.77764000      -2.73510100
H        0.75260700      -1.79496500      -1.50865900
H        1.44683800      -0.23752000      -1.93147700
H       -0.06307500      -1.36217700       1.02109900
H       -1.46198000       0.90404400       0.92253100
H        1.70219500       1.15616400       0.81996200
H        2.22148000      -0.50661200       0.52782600
H        1.71986300      -0.00210800       2.14253500
