17
Properties=species:S:1:pos:R:3 pbc="F F F"
C       -1.41234100       0.04372000      -1.78483600
C       -1.10510500       0.01745100      -0.29239700
C       -0.15628000      -1.08985100       0.21815200
C        0.63739700      -0.00567000       1.00173900
C       -0.14207700       1.09231500       0.25649900
N        2.09409800       0.03313300       0.85980600
H       -1.98714200      -0.83320000      -2.07823500
H       -0.49812700       0.05740700      -2.37539100
H       -1.99223900       0.92723700      -2.04641300
H       -2.04922400       0.01252500       0.27099500
H        0.42778700      -1.55030400      -0.58182400
H       -0.61765600      -1.88571500       0.80936000
H        0.39134700      -0.02722100       2.07666900
H        0.45013200       1.57022900      -0.52662700
H       -0.59150100       1.87633000       0.87210900
H        2.35874900       0.05872400      -0.12201400
H        2.51962700      -0.78573100       1.28779000
