21
Properties=species:S:1:pos:R:3 pbc="F F F"
C       -1.02236000       1.92320200       2.17065800
C       -1.60450200       1.12854500       1.00787000
C       -1.20542900      -0.35400400       1.01155800
C        0.28403800      -0.62035200       0.72406100
C        0.69135100      -0.31182400      -0.69234900
C        1.29906800      -1.18813400      -1.50191000
C        1.72258600      -0.88650800      -2.90532600
H       -1.36399200       2.95572100       2.13969000
H        0.06523400       1.93132300       2.14157600
H       -1.32650700       1.49799500       3.12525200
H       -1.30381700       1.59134300       0.06247300
H       -2.69741000       1.19487700       1.04536500
H       -1.81263600      -0.88645800       0.27217100
H       -1.45650800      -0.78833400       1.98580100
H        0.50736100      -1.66942600       0.94646600
H        0.89369100      -0.02219000       1.41506300
H        0.47767000       0.69258400      -1.05816300
H        1.51335600      -2.19359100      -1.13865500
H        1.44348200       0.12285300      -3.19862000
H        1.26765700      -1.58553300      -3.60911500
H        2.80390100      -0.98671900      -3.01667700
