15
Properties=species:S:1:pos:R:3 pbc="F F F"
C       -0.04664300      -1.58677500      -1.17175400
C       -0.46769400      -0.12985800      -1.30810800
C        0.02854300       0.78141200      -0.16211300
C       -0.49314500       0.34380900       1.16003000
C       -0.87810300       0.02132200       2.25954600
N        1.50003100       0.87510500      -0.15735000
H       -0.45886900      -2.18082000      -1.98478700
H       -0.39872900      -2.00817500      -0.23291200
H        1.03609800      -1.69008300      -1.20141600
H       -1.55990700      -0.07082900      -1.35083900
H       -0.09486000       0.27328000      -2.25467700
H       -0.36814900       1.79978900      -0.34761300
H       -1.23398700      -0.27438100       3.21605300
H        1.91119100      -0.04273400      -0.00124100
H        1.80925400       1.48875800       0.59327700
