13
Properties=species:S:1:pos:R:3 pbc="F F F"
O       -1.93947400      -0.20915500       0.85221700
C       -0.82065200      -0.07315700       0.36059600
C       -0.05523800       1.23867800       0.15151700
C        1.21523800       0.82777500      -0.60090600
C        1.27849600      -0.71441100      -0.53729400
N       -0.04131500      -1.11381400      -0.09668800
H        0.17128600       1.69081500       1.12156500
H       -0.65338700       1.96774900      -0.39954900
H        2.11313500       1.27815800      -0.17260600
H        1.16841700       1.15871200      -1.64172300
H        2.06123400      -1.05885200       0.16584500
H        1.52842700      -1.15508000      -1.51716100
H       -0.29117800      -2.08487000       0.05923000
