21
Properties=species:S:1:pos:R:3 pbc="F F F"
C        0.25757500       2.51871800       0.38388600
C       -0.62375300       1.57920800      -0.43353100
C        0.07864100       0.27628800      -0.79814100
C       -0.71704500      -0.95163900      -1.14903300
C        0.11491400      -0.93177000       0.10995600
C        1.39539100      -1.75798600       0.11990600
C       -0.60447100      -0.90937000       1.45113300
H       -0.26979700       3.44237000       0.61403000
H        1.16374900       2.77701700      -0.16068400
H        0.55481300       2.05925600       1.32409900
H       -0.93124300       2.08861700      -1.35535700
H       -1.54570400       1.36876000       0.11696400
H        0.98032500       0.42486800      -1.39616900
H       -0.37782900      -1.55824600      -1.98322000
H       -1.79583800      -0.89828900      -1.04106200
H        1.87403900      -1.75465300      -0.85689400
H        1.19098100      -2.79374900       0.39114900
H        2.10901100      -1.36623300       0.84458000
H       -1.54251500      -0.36321100       1.39457800
H        0.01198600      -0.44429000       2.22023600
H       -0.82949000      -1.92291200       1.78269600
