17
Properties=species:S:1:pos:R:3 pbc="F F F"
C        1.02374100       1.78812000      -0.57131500
C        0.36868900       0.40763100      -0.48639800
C       -1.14501400       0.44398900      -0.45423000
C       -1.91265700       1.53058000      -0.53512000
C        0.91787800      -0.37721500       0.73903900
C        0.49052600      -1.77520100       0.76518600
C        0.15619100      -2.93617600       0.78703800
H        2.10685700       1.69364700      -0.62351100
H        0.78248300       2.39580700       0.29851000
H        0.69099500       2.32220500      -1.45824300
H        0.65858800      -0.16150800      -1.38712700
H       -1.62023100      -0.53278200      -0.36028000
H       -1.49699400       2.52666500      -0.62580600
H       -2.99247400       1.44931100      -0.51236000
H        0.60190400       0.11491600       1.66735400
H        2.01530400      -0.34348500       0.72607000
H       -0.14255200      -3.95513700       0.81019800
