18
Properties=species:S:1:pos:R:3 pbc="F F F"
C       -1.41741800       1.78183200      -0.51140700
C       -2.51010400       0.79356700      -0.24710200
C       -1.12353000       0.31260900      -0.54901400
C       -0.27971200      -0.33416500       0.54273400
C        1.21601200      -0.21887100       0.27099900
C        1.96579200      -1.28052700      -0.45852600
N        2.10207100      -1.13648100       0.99175800
H       -1.04490100       2.35662000       0.33038500
H       -1.44089300       2.32550800      -1.45045000
H       -3.27504700       0.66644200      -1.00645600
H       -2.87077700       0.70372900       0.77252400
H       -0.97481600      -0.11284300      -1.54335400
H       -0.54501400      -1.39260800       0.64072000
H       -0.51322300       0.13475400       1.50565000
H        1.58549900       0.80873600       0.15355900
H        2.82440600      -0.99836000      -1.07181300
H        1.44836700      -2.18298500      -0.78721200
H        2.98566900      -0.68029700       1.22803200
