17
Properties=species:S:1:pos:R:3 pbc="F F F"
C       -0.27124100       0.16341100       2.23457700
C       -0.61497400       0.22391600       0.76242600
C        0.24469200       0.94565700      -0.23863200
C        0.19388800      -0.56817900      -0.24412800
C       -0.47420000      -1.26825500      -1.32160000
C       -1.02274400      -1.86447500      -2.22071300
C        1.51780100       1.66319900       0.15273400
H       -0.58332700       1.07377500       2.74634100
H        0.79765300       0.03954500       2.39262700
H       -0.77737300      -0.67332600       2.71498600
H       -1.68642700       0.26705700       0.56183300
H       -0.30294200       1.42933400      -1.04863700
H        1.07740900      -1.07949700       0.14443200
H       -1.50741500      -2.38604200      -3.00863300
H        2.07506800       1.10909100       0.90460500
H        1.30074400       2.65211000       0.55637300
H        2.16728000       1.79631000      -0.71191200
