17
Properties=species:S:1:pos:R:3 pbc="F F F"
C       -2.24978100       1.74408600      -1.70096200
C       -0.72538100       1.69177500      -1.63074000
C       -0.22608800       0.82797200      -0.55392400
C        0.20241900       0.10828500       0.32076300
C        0.69517700      -0.73319300       1.39905900
C        0.68306400      -2.23025500       1.25612400
C        1.98240700      -1.49436400       1.24004200
H       -2.57108600       2.38612200      -2.51895600
H       -2.66954800       2.13691800      -0.77787200
H       -2.66739000       0.75340300      -1.86442800
H       -0.32819300       2.70654800      -1.49090000
H       -0.32425100       1.33513200      -2.58922000
H        0.48710700      -0.34239200       2.39872300
H        0.32749300      -2.64823000       0.32086300
H        0.44056000      -2.81843200       2.13583500
H        2.50722800      -1.41521500       0.29442000
H        2.62717000      -1.57968900       2.10936300
