17
Properties=species:S:1:pos:R:3 pbc="F F F"
C       -2.40857100      -1.57096300       0.24823600
C       -1.09530900      -1.36253800       0.08444400
C       -0.41146700      -0.05407600       0.05381200
C       -1.07008600       1.11498400       0.19617300
C        1.07501800      -0.11206900      -0.14793800
C        1.79667600       0.93794100      -0.95015600
C        1.99452200       0.87266000       0.52405200
H       -2.81481000      -2.57493900       0.25585900
H       -3.10858300      -0.75370700       0.37781700
H       -0.44658400      -2.23089300      -0.04103900
H       -2.14234400       1.14388000       0.34078000
H       -0.54623900       2.06211300       0.17009100
H        1.46964000      -1.12464100      -0.24590000
H        1.20785600       1.75848600      -1.34763200
H        2.61096100       0.61268000      -1.59025600
H        1.54072300       1.64884000       1.13197400
H        2.94468400       0.50254500       0.89657100
