19
Properties=species:S:1:pos:R:3 pbc="F F F"
C       -0.41414900      -1.66562500      -1.66059700
C       -0.51652700      -0.15916900      -1.42178800
C       -0.17270900       0.23955100       0.00558200
C       -1.17822000       0.56693500       0.85380500
C       -1.07384800       0.98515200       2.28557300
C        1.23908600       0.24822600       0.41032400
C        2.28974600       0.02560500      -0.39416700
H       -0.65649800      -1.90758300      -2.69386200
H       -1.10445600      -2.20792900      -1.01802300
H        0.58930700      -2.02972300      -1.45328100
H       -1.53521300       0.16880900      -1.65311000
H        0.14510800       0.36274600      -2.12245100
H       -2.19681000       0.53550600       0.46460200
H       -0.05462000       0.97091800       2.66194800
H       -1.67716700       0.33147500       2.91879600
H       -1.46643100       1.99570900       2.41923300
H        1.43985900       0.46322000       1.45946600
H        2.17661100      -0.18484400      -1.45059600
H        3.30004300       0.05764900      -0.00511900
