17
Properties=species:S:1:pos:R:3 pbc="F F F"
C        1.29725100      -1.86977100      -0.58557000
C        0.74658900      -0.58989200       0.06425900
C       -0.80005800      -0.56097900       0.04416700
C       -1.41396900       0.57583100       0.87223900
N       -1.17075400       1.88148300       0.25972000
O        1.29164200       0.55929200      -0.59962000
H        2.38445200      -1.85681800      -0.59468500
H        0.95552400      -1.96551500      -1.61520800
H        0.97309700      -2.75535400      -0.04274800
H        1.10099600      -0.53389400       1.11072800
H       -1.14845100      -0.49025200      -0.99169000
H       -1.16938400      -1.51734600       0.43045200
H       -1.01773700       0.52183300       1.90975500
H       -2.50098200       0.41732200       0.95323200
H       -0.17161400       2.00719200       0.10116800
H       -1.50673000       2.62713000       0.86385400
H        0.98408500       0.56986100      -1.51651000
