13
Properties=species:S:1:pos:R:3 pbc="F F F"
N       -0.30783100       1.89195600       0.53670300
C       -0.88554000       0.92560600      -0.39674300
C       -0.39703200      -0.48423500      -0.11593500
C       -1.23623700      -1.52827000       0.00796800
C        1.03128200      -0.66539700      -0.03083300
C        2.23672400      -0.77782200       0.03072400
H       -0.53842000       2.84289500       0.26060800
H        0.70425900       1.79374900       0.57345400
H       -0.63649600       1.17505900      -1.45299800
H       -1.98225100       0.95686300      -0.32478300
H       -2.30893900      -1.38862100      -0.05347900
H       -0.86796900      -2.53189100       0.17901100
H        3.28945000      -0.91103300       0.09018600
