18
Properties=species:S:1:pos:R:3 pbc="F F F"
C       -1.27281700      -1.61896500       1.74347900
C       -1.59553400      -1.31935700       0.28458200
C       -1.04644100       0.02580700      -0.21172100
C        0.48400800       0.08459200      -0.28089300
C        0.98742200       1.42029900      -0.84253900
O        2.40452600       1.45710600      -0.90417400
H       -1.71870100      -2.56338000       2.04818400
H       -1.65852200      -0.83970500       2.39770500
H       -0.19965100      -1.68985300       1.90661100
H       -2.68295300      -1.32131400       0.15313200
H       -1.20872300      -2.12598400      -0.34703800
H       -1.41343100       0.83104200       0.43481100
H       -1.45507700       0.22527000      -1.20910700
H        0.85753300      -0.73524900      -0.90282400
H        0.90846500      -0.07140200       0.71790300
H        0.61111700       2.26141000      -0.22064100
H        0.61014000       1.58098300      -1.86352900
H        2.77376400       1.23708200      -0.03927000
