13
Properties=species:S:1:pos:R:3 pbc="F F F"
C       -0.21577200       0.94524700      -2.10738700
C       -0.81259300       0.51926200      -1.14689700
C       -1.68547300       0.04502900      -0.07451200
C       -1.02749800      -0.53028900       1.15032600
C        0.28341000      -0.65714200       1.42521600
C        1.38829800      -0.27038600       0.60419600
C        2.43613200      -0.00811100       0.04996400
H        0.39286700       1.29808600      -2.90296400
H       -2.37012500      -0.71212500      -0.49032600
H       -2.33885400       0.87609800       0.23825500
H       -1.73349300      -0.88319200       1.90261600
H        0.56900600      -1.10505500       2.37977700
H        3.28157900       0.26453200      -0.53278500
