17
Properties=species:S:1:pos:R:3 pbc="F F F"
C       -0.73240300      -0.87316200      -2.58678200
C       -0.91572200      -0.15191500      -1.25765500
C        0.39707500      -0.01122800      -0.47457700
C        0.21531500       0.73388300       0.84081400
C       -0.06267200       0.00007300       2.10728200
N        1.24653300       0.61424300       1.87602800
H       -1.67844500      -0.95442800      -3.11765600
H       -0.34577100      -1.87894400      -2.43535500
H       -0.03244400      -0.34091700      -3.22779200
H       -1.64789300      -0.69156800      -0.64753200
H       -1.33914600       0.84231300      -1.43662100
H        1.13101100       0.51693600      -1.09541600
H        0.81729100      -1.00414500      -0.28048600
H       -0.19753900       1.74542200       0.74305700
H       -0.11268600      -1.09039300       2.08352000
H       -0.66435600       0.46761300       2.88822400
H        1.93468900      -0.09749100       1.61936700
