21
Properties=species:S:1:pos:R:3 pbc="F F F"
C       -2.45863200      -0.61528000       0.94727200
C       -1.47147000       0.27549700       1.05647600
C       -0.91332500       1.07091800      -0.09155600
C        0.61662800       1.22713900      -0.08115300
C        1.44637600      -0.03267400      -0.43025100
C        1.34802800      -1.12222300       0.64373700
C        1.10541500      -0.59150400      -1.81762700
H       -2.84461500      -1.13607300       1.81487900
H       -2.90360100      -0.85246400      -0.01218200
H       -1.05088900       0.48936100       2.04010400
H       -1.34553000       2.08112300      -0.04085700
H       -1.25047500       0.64729400      -1.04212400
H        0.93059300       1.59119000       0.90372000
H        0.88051900       2.01449600      -0.79657400
H        2.49814400       0.29965800      -0.46221000
H        0.34083600      -1.52625600       0.70564800
H        1.61515900      -0.72762800       1.62225600
H        2.02438800      -1.94395000       0.41590700
H        0.09964500      -1.00484700      -1.84380500
H        1.79642800      -1.38744700      -2.08801600
H        1.17127700       0.18430100      -2.57813000
