18
Properties=species:S:1:pos:R:3 pbc="F F F"
C       -2.42664200      -1.11783200       0.00503600
O       -1.01758400      -1.03421000       0.01219000
C       -0.53033300       0.27953200       0.26753900
C        1.00612100       0.26800100       0.24522300
C        1.53864200      -0.16123600      -1.12735700
C        1.56559500       1.63535200       0.65661800
H       -2.70838500      -2.15261000      -0.21361400
H       -2.86773400      -0.45598200      -0.76353800
H       -2.85488700      -0.82945200       0.98332300
H       -0.90071400       0.63382200       1.25526300
H       -0.93351400       0.98713400      -0.48988500
H        1.34355900      -0.47444900       0.98501200
H        1.26550900       0.56008600      -1.89576500
H        1.12601600      -1.12660700      -1.40856600
H        2.62397200      -0.24228400      -1.11438800
H        1.25778500       2.41207300      -0.04172600
H        2.65310200       1.61909300       0.67633100
H        1.21566000       1.91995000       1.64767900
