16
Properties=species:S:1:pos:R:3 pbc="F F F"
C       -2.64082000      -0.36962200      -0.97282100
C       -1.12549700      -0.28445500      -0.85294200
C       -0.67467400       0.65969700       0.28085600
N        0.78443600       0.77620900       0.38459400
N        1.43445800      -0.30878300       0.92309300
C        2.68163500      -0.48273200       0.61807800
H       -2.92994500      -1.04411500      -1.77589200
H       -3.07279800       0.60700300      -1.18425500
H       -3.08638800      -0.73657100      -0.05020200
H       -0.70010100       0.06100600      -1.80172600
H       -0.70981000      -1.28007900      -0.67230800
H       -1.06555800       0.30293500       1.24187500
H       -1.09067300       1.66486600       0.11522900
H        1.23366000       1.15595200      -0.46072400
H        3.22155700      -1.30605000       1.08347200
H        3.22393300       0.16574300      -0.08830200
