16
Properties=species:S:1:pos:R:3 pbc="F F F"
C       -0.64146200      -2.28681300      -0.21165100
C       -1.21195200      -0.87499200      -0.24709700
C       -0.58094000       0.04952200       0.81360600
N        0.86489800       0.24758700       0.62527300
N        1.35357000       1.32045000      -0.07392700
C        0.61473100       1.96360700      -0.92286400
H       -1.09200300      -2.90714900      -0.98346800
H       -0.82674800      -2.76084400       0.75080200
H        0.43375500      -2.27270400      -0.37571800
H       -2.29440100      -0.91122500      -0.08345900
H       -1.06013400      -0.44581300      -1.24141600
H       -0.72452100      -0.39162700       1.80944600
H       -1.10107300       1.02280300       0.81206100
H        1.42095900       0.05534800       1.46277900
H        1.07302800       2.78679500      -1.47162600
H       -0.44039700       1.74021000      -1.13079000
