9
Properties=species:S:1:pos:R:3 pbc="F F F"
C       -0.99619700       0.48729300      -0.86788600
O        0.42545600       0.40288100      -0.71803900
N        0.91896900      -0.21990800       0.39167000
C        0.10865900      -0.71268800       1.26970400
H       -1.17534800       1.01490800      -1.80794700
H       -1.45310300       1.05154300      -0.04149500
H       -1.45352200      -0.51186000      -0.91888000
H        0.55696700      -1.19918500       2.13663800
H       -0.98620500      -0.68672800       1.22339600
