21
Properties=species:S:1:pos:R:3 pbc="F F F"
C       -2.16107400       0.25119300       1.84092400
C       -1.44849400      -0.43664500       0.94735400
C       -0.91685000       0.13716300      -0.33576000
C        0.63393100       0.02254600      -0.50531800
C        1.06515200      -1.45910900      -0.56932000
C        1.02972900       0.71924300      -1.82722700
C        1.34368500       0.71993800       0.67454000
H       -2.53474800      -0.21808900       2.74282000
H       -2.38956000       1.30082600       1.69657700
H       -1.24279800      -1.49148400       1.13128300
H       -1.20545600       1.18991500      -0.41282300
H       -1.39192100      -0.38101200      -1.17929700
H        0.55574300      -1.97884200      -1.37843900
H        0.84095700      -1.97765200       0.36002100
H        2.13642000      -1.53755800      -0.74309100
H        0.54789900       0.24254700      -2.67860600
H        2.10559300       0.67285300      -1.98174400
H        0.73682300       1.76708200      -1.81838500
H        1.08142700       0.24684300       1.61797500
H        1.05849200       1.76816400       0.73282400
H        2.42466200       0.67043500       0.55972300
