14
Properties=species:S:1:pos:R:3 pbc="F F F"
C       -1.96265100      -0.66408600       0.22395000
C       -0.43227100      -0.80869400       0.15205200
C        0.18654800       0.17325600      -0.85683200
C        1.62138400       0.52545800      -0.80207100
O        0.63309000       1.40649300      -0.27380200
O        0.15914700      -0.56495100       1.42387200
H       -2.42246700      -0.90866900      -0.73243500
H       -2.24453700       0.35345200       0.48559500
H       -2.36973200      -1.33164500       0.97918900
H       -0.18275900      -1.85079200      -0.13979000
H       -0.34556000       0.30641600      -1.81269100
H        2.13301000       0.89404700      -1.69958000
H        2.27078700       0.05915000      -0.05213600
H        0.34530400       0.39010300       1.46869800
