23
Properties=species:S:1:pos:R:3 pbc="F F F"
C       -1.85286300       1.66671500      -0.68277400
C       -0.34138300       1.56904800      -0.51307800
C        0.22065500       0.13218200      -0.64497200
C       -0.22974500      -0.79964000       0.52515100
C        0.41744100      -0.44546700       1.87057100
C        0.00954600      -2.27777900       0.18523900
C        1.74561400       0.17949700      -0.81318300
H       -2.17505600       2.70536200      -0.64297100
H       -2.38259200       1.12737800       0.09984800
H       -2.16704900       1.25643700      -1.64082400
H       -0.05345400       1.99424600       0.45389800
H        0.13744400       2.19636000      -1.27281100
H       -0.19917200      -0.29931200      -1.56879800
H       -1.31771900      -0.66772500       0.63866200
H        1.48869200      -0.63481900       1.85891500
H       -0.01478600      -1.04690900       2.66807100
H        0.26262800       0.60191600       2.12098500
H        1.07031800      -2.49775800       0.08445200
H       -0.47901900      -2.54748300      -0.74912400
H       -0.38673500      -2.92003100       0.96923600
H        2.22444400       0.66641200       0.03381200
H        2.01210100       0.73867600      -1.70829400
H        2.16436300      -0.82009300      -0.90679300
