17
Properties=species:S:1:pos:R:3 pbc="F F F"
C       -1.42969300       0.26794200      -0.81402100
C        0.09541300       0.32089500      -0.70230000
C        0.59940400       1.08020400       0.50835200
C       -0.14225600       1.69961900       1.42689200
C        0.71504200      -1.09777200      -0.74262400
N        0.24965800      -1.91772300       0.37470300
H       -1.85697900       1.26846300      -0.83776400
H       -1.86246400      -0.26937400       0.02609700
H       -1.72389700      -0.24636500      -1.72703500
H        0.48398800       0.85323800      -1.59078700
H        1.68674100       1.11087900       0.60616000
H       -1.22445100       1.70312000       1.38565800
H        0.32097600       2.22775000       2.25164200
H        1.82302600      -1.00217700      -0.75544500
H        0.43716400      -1.59052700      -1.68676000
H        0.41346300      -1.44127900       1.25835300
H        0.72736000      -2.81499100       0.38916200
