19
Properties=species:S:1:pos:R:3 pbc="F F F"
C       -0.22903900      -0.18805700       2.05627100
C       -0.60860800      -0.17159000       0.56748300
C       -0.06252300       1.09169500      -0.17397000
C        1.46809500       1.11652500      -0.24552900
C       -0.67719100       1.20024400      -1.57440000
C       -0.19043600      -1.42038300      -0.09304700
C        0.13581500      -2.45509000      -0.62535400
H       -0.54973000       0.73202600       2.54156000
H        0.84511900      -0.28601500       2.19289300
H       -0.70646400      -1.02376100       2.56291700
H       -1.71135900      -0.12751000       0.50495000
H       -0.39111000       1.96685600       0.41065400
H        1.84469500       0.25340200      -0.78933800
H        1.91063000       1.10969600       0.74828100
H        1.81058500       2.01341400      -0.75807100
H       -0.39770400       0.34660400      -2.18760200
H       -0.33451300       2.10219500      -2.07737600
H       -1.76401700       1.23501700      -1.52241700
H        0.42719400      -3.36198500      -1.09517400
