18
Properties=species:S:1:pos:R:3 pbc="F F F"
C        1.61992900       1.05883500       1.15944100
C        2.00564000      -0.10551300       0.30179700
C        0.86497800      -0.23161900       1.26498500
C       -0.58491300      -0.36833900       0.80459700
C       -0.90764200       0.29818800      -0.52535100
C       -0.89793400      -0.48000300      -1.79628900
N       -2.16363100      -0.05423900      -1.19587300
H        1.13904600       1.90430400       0.67833700
H        2.28144300       1.32767900       1.97695400
H        2.93021200      -0.62448500       0.53412300
H        1.77913500      -0.04500800      -0.75752700
H        1.07831600      -0.81572300       2.16268000
H       -1.24062800       0.04677600       1.58300200
H       -0.83680800      -1.43462800       0.74084400
H       -0.66454800       1.36558000      -0.58408900
H       -0.66322500      -1.54571600      -1.75854900
H       -0.64027800       0.01146700      -2.73594700
H       -2.61759000      -0.83986300      -0.72379000
