18
Properties=species:S:1:pos:R:3 pbc="F F F"
C       -2.77939600      -0.36041300      -0.73451900
N       -1.32151400      -0.36388100      -0.67041300
C       -0.76396200       0.80350800       0.02730200
C        0.76616500       0.78657600       0.00922700
C        1.36207900      -0.41556900       0.74868300
N        2.82764300      -0.36774100       0.72890100
H       -3.12476900      -1.23643700      -1.28828200
H       -3.19269300       0.53921100      -1.22695700
H       -3.20073900      -0.40428100       0.27383600
H       -0.93084700      -0.42068800      -1.61387500
H       -1.12911200       0.80139600       1.06613900
H       -1.12570100       1.75472900      -0.42168100
H        1.14131800       1.71153800       0.45850700
H        1.12035700       0.78519100      -1.02912900
H        0.97312400      -1.35254500       0.30073800
H        1.02534100      -0.41114900       1.79563700
H        3.17278300      -0.35022700      -0.22738700
H        3.21872500      -1.17999900       1.19888100
