19
Properties=species:S:1:pos:R:3 pbc="F F F"
C       -1.82837700      -1.52203500      -0.23330500
C       -1.87590300      -0.21414400       0.02377300
C       -1.16961800       0.47652900       1.16673600
C        0.31003800       0.10158800       1.35713000
C        1.27419300       0.81239700       0.39053400
C        1.10986300       0.41474400      -1.04974900
C        2.09375500      -0.06545800      -1.81100900
H       -2.38707900      -1.95026700      -1.05630200
H       -1.22455200      -2.19877300       0.35978700
H       -2.50607300       0.42006000      -0.60101500
H       -1.70600100       0.24062000       2.09597900
H       -1.25684000       1.56092700       1.04235400
H        0.43222100      -0.98199700       1.27192500
H        0.60438400       0.36487700       2.37961400
H        2.30362500       0.61764400       0.70891300
H        1.12097000       1.89721400       0.47882500
H        0.11672500       0.54750100      -1.47805900
H        3.09302700      -0.21427900      -1.41766400
H        1.92589000      -0.32525700      -2.84901400
