17
Properties=species:S:1:pos:R:3 pbc="F F F"
C       -1.79553400      -0.31677300      -1.36695500
C       -0.27904900      -0.30779800      -1.22778100
C        0.24564100       0.67091400      -0.15213800
C       -0.17631400       0.27610500       1.28973000
O        0.40609900      -0.95720200       1.68848900
N        1.71764800       0.76755100      -0.26063400
H       -2.10454900      -0.99610600      -2.15840400
H       -2.17125700       0.67452800      -1.61327300
H       -2.28319100      -0.63669500      -0.44769400
H        0.16953600      -0.03487600      -2.18721800
H        0.07672400      -1.32172600      -1.00692800
H       -0.16973900       1.67285600      -0.36500600
H       -1.28193400       0.22145700       1.37599000
H        0.16742600       1.04073500       2.00255500
H        0.16068000      -1.64575800       1.05650000
H        2.13259700      -0.11472800       0.03543000
H        2.06291100       1.49037500       0.36744900
