12
Properties=species:S:1:pos:R:3 pbc="F F F"
C       -0.68898200       0.49475000       1.67963900
C       -1.10806100       0.50130800       0.22662100
O       -0.30234100       1.25639100      -0.67554700
C       -0.30985300      -0.16686500      -0.84103200
C        0.92279500      -0.88207500      -0.54792900
C        1.91422400      -1.54130200      -0.33402200
H       -1.00729900       1.41103800       2.17539200
H        0.39143400       0.41756800       1.76854900
H       -1.13906500      -0.34421200       2.21033400
H       -2.19163400       0.61291800       0.04605400
H       -0.82880000      -0.50863200      -1.75265400
H        2.81335600      -2.07470700      -0.14296500
