17
Properties=species:S:1:pos:R:3 pbc="F F F"
N       -1.24071800      -1.59574000      -0.90190900
C       -1.53538100      -0.45142800      -0.03584400
C       -0.90704200       0.84268200      -0.56700900
C        0.62917300       0.85923300      -0.51336300
C        1.17515000       0.73307700       0.88248900
C        2.14625400      -0.10728000       1.24166000
H       -1.66145600      -2.44218100      -0.52741600
H       -0.23656900      -1.74035200      -0.97075700
H       -1.19388200      -0.62248300       1.00643300
H       -2.62751100      -0.32656000       0.01341600
H       -1.29245900       1.68638400       0.01676700
H       -1.22751500       1.00502300      -1.60075000
H        0.97725000       1.80981500      -0.94166600
H        1.04121200       0.06910900      -1.14857500
H        0.74042300       1.39787800       1.63020300
H        2.60338200      -0.78314400       0.52803500
H        2.51323000      -0.14101200       2.26007200
