9
Properties=species:S:1:pos:R:3 pbc="F F F"
C       -1.41525900       0.02453100      -0.08168500
C        0.10906500       0.03637600      -0.12076900
O        0.75379400       0.33824200      -1.12213200
N        0.74556100      -0.31942100       1.05992900
H       -1.81868200       0.31502400      -1.04623400
H       -1.78905900       0.71458100       0.67349700
H       -1.78905300      -0.96778000       0.16687100
H        0.22785800      -0.56945400       1.88988100
H        1.75682000      -0.32780600       1.08826400
