17
Properties=species:S:1:pos:R:3 pbc="F F F"
C       -1.42050100       1.63100700       0.31283100
C       -0.55152300       0.97653700      -0.45596400
C        0.24192500      -0.27889900      -0.05168200
N       -0.05446700      -0.72132700       1.32808900
C       -0.11892200      -1.42822100      -1.02296600
C        1.75361100       0.03650000      -0.15098000
H       -1.93965600       2.51064900      -0.04866900
H       -1.64068500       1.30998400       1.32530700
H       -0.36477600       1.33990900      -1.46741400
H       -1.04299400      -0.94182000       1.42411500
H        0.17896900       0.01274600       1.99267900
H       -1.17795200      -1.66860100      -0.95902300
H        0.44577400      -2.32482100      -0.77876600
H        0.10427700      -1.15351400      -2.05148300
H        2.02485500       0.84123900       0.52891500
H        2.02256600       0.34087900      -1.16000500
H        2.34334700      -0.83891100       0.11028800
