18
Properties=species:S:1:pos:R:3 pbc="F F F"
N        0.57484400       0.61239100       1.88435900
C        0.01206700       1.37288200       0.76437000
C        0.48106100       0.85236400      -0.60018100
C       -0.06144700      -0.52859900      -1.03819400
N       -1.53887200      -0.52164100      -1.07104400
C        0.48950000      -1.69220500      -0.18998800
H        0.29393200       1.02437200       2.77035600
H        1.59060400       0.60572900       1.83804700
H        0.28365800       2.44880600       0.83329300
H       -1.08456000       1.33552000       0.82929600
H        1.57670300       0.82007500      -0.61508500
H        0.18516200       1.58559900      -1.35783700
H        0.27936300      -0.68564800      -2.07980500
H       -1.90740600      -0.43798400      -0.12605300
H       -1.87919500      -1.39742700      -1.46118000
H        0.15383100      -1.61941600       0.84117200
H        1.57760800      -1.69466800      -0.19150900
H        0.15141100      -2.64686800      -0.58993900
