15
Properties=species:S:1:pos:R:3 pbc="F F F"
N       -2.20707400       0.77019200       1.53756500
C       -0.76594200       0.99225400       1.39790900
C       -0.21978300       0.28523200       0.18419900
C        0.98274800      -0.30044600       0.13482100
C        1.56135000      -0.98624400      -1.07900900
O        0.78460300      -0.81475200      -2.24675100
H       -2.56463600       1.23769900       2.36637200
H       -2.41250700      -0.22280500       1.61018200
H       -0.19975800       0.68336900       2.30238100
H       -0.59595600       2.07875200       1.29411600
H       -0.85907400       0.27189900      -0.69829100
H        1.61317400      -0.30354000       1.02593600
H        1.65283200      -2.07126200      -0.89715700
H        2.59894300      -0.61531500      -1.24871900
H        0.58943700       0.12310000      -2.37128100
