21
Properties=species:S:1:pos:R:3 pbc="F F F"
C        0.00934000      -1.73147900       1.73267100
C       -0.93067600      -1.15916100       0.67596600
C       -0.23969000      -0.20854200      -0.31224500
C        0.79773800      -0.87602400      -1.20474500
C       -1.08300700       0.89446100      -0.90452200
C       -0.04344600       1.22190600       0.13371100
C        1.18272400       2.03418600      -0.22676900
H       -0.53270500      -2.37869900       2.41937200
H        0.47254700      -0.93712700       2.31445100
H        0.80433100      -2.31864100       1.27795400
H       -1.74780900      -0.62679200       1.17401600
H       -1.39322200      -1.98485600       0.12182000
H        0.37415100      -1.75060300      -1.69827700
H        1.66007900      -1.21122400      -0.62906500
H        1.15450000      -0.19914800      -1.97690100
H       -2.12835200       0.95998700      -0.61644900
H       -0.87955700       1.19363900      -1.92790900
H       -0.44064600       1.45193300       1.12466800
H        1.50081000       1.84881900      -1.24974800
H        2.01798000       1.79988800       0.43315200
H        0.97999300       3.10073300      -0.13148500
