17
Properties=species:S:1:pos:R:3 pbc="F F F"
C       -1.03172200      -2.72089500       0.67377800
C       -1.28722800      -1.46846100      -0.15446800
C       -0.77656100      -0.17160100       0.50272200
C        0.71992400      -0.10193100       0.60927400
C        1.48470000       0.86645700       0.07108600
C        0.98683600       1.96985500      -0.69417500
C        0.63441200       2.92513200      -1.35371100
H       -1.44105900      -3.59792700       0.17683700
H       -1.49743700      -2.64384200       1.65442700
H        0.03275800      -2.88926900       0.82213700
H       -2.36416700      -1.36617700      -0.32601100
H       -0.82726300      -1.58052200      -1.14108500
H       -1.21098200      -0.09234500       1.50895200
H       -1.14069700       0.68789000      -0.06728000
H        1.21126600      -0.89749800       1.16899200
H        2.56715600       0.84020900       0.20537600
H        0.28825800       3.74813900      -1.92937900
