17
Properties=species:S:1:pos:R:3 pbc="F F F"
N       -1.94683600      -0.49536300      -0.35847100
C       -0.49577500      -0.37476400      -0.52217900
C        0.34858800      -1.48170500       0.13915700
C        1.20534800      -0.40909900       0.82354100
C        0.19885100       0.67565300       0.38263200
C        0.76107700       1.92577500      -0.28288900
H       -2.30076800      -1.29982500      -0.87078800
H       -2.41727800       0.33895900      -0.70125000
H       -0.21259900      -0.23728600      -1.59098000
H        0.87744500      -2.15591300      -0.54037900
H       -0.22270000      -2.08632500       0.84587200
H        2.19127600      -0.29113100       0.36688700
H        1.34289000      -0.52317300       1.90197300
H       -0.45546900       0.96434800       1.21521700
H        1.38951900       1.67016900      -1.13450700
H        1.36632500       2.50064900       0.41639000
H       -0.03931600       2.57191200      -0.64070500
