19
Properties=species:S:1:pos:R:3 pbc="F F F"
C       -1.43020400       0.42851500       1.76377600
C       -1.73341100       0.89194300       0.34535700
C       -1.15303800      -0.02499500      -0.74907500
C        0.36443800      -0.06471400      -0.75649800
C        1.06749600       0.78022600      -1.53447000
C        1.00340500      -1.07512400       0.10928300
C        2.30421300      -1.13502800       0.42450400
H       -1.88345900       1.09996800       2.49053300
H       -0.35869100       0.40679800       1.94919800
H       -1.82097200      -0.57163500       1.94240200
H       -1.34815300       1.90671800       0.20325400
H       -2.81893500       0.95084200       0.20820100
H       -1.51450700       0.32970700      -1.71966300
H       -1.54590500      -1.03891200      -0.61358400
H        0.56733300       1.50464800      -2.16541600
H        2.15016900       0.76254400      -1.55751500
H        0.33308800      -1.82953900       0.52318600
H        3.01687300      -0.40608500       0.05637300
H        2.68577400      -1.91999000       1.06577200
