13
Properties=species:S:1:pos:R:3 pbc="F F F"
C        0.01486600       0.42377300       2.24944400
C       -0.33562700       0.50190200       0.78023300
C        0.55328200       1.22866100      -0.17821400
C        0.48073900      -0.27581300      -0.22649600
C       -0.18501500      -0.92214800      -1.33931000
N       -0.71160600      -1.44765800      -2.21977300
H       -0.34658200       1.30283800       2.78161900
H        1.09130200       0.36241000       2.39377500
H       -0.43824200      -0.45133200       2.71339300
H       -1.40420500       0.55903600       0.57200300
H        1.47179500       1.66361600       0.20322900
H        0.09146600       1.78170000      -0.98934700
H        1.34624400      -0.82291900       0.14980200
