19
Properties=species:S:1:pos:R:3 pbc="F F F"
C       -1.42688700       2.52867800       0.21181200
C       -0.21212600       1.90835200       0.82878300
C        0.20327300       0.63819800       0.69779500
C       -0.46338500      -0.43442500      -0.08453900
C       -0.35457600      -1.87037900       0.36802700
C        0.33525200      -1.44093800      -0.88822800
C        1.84551800      -1.39497200      -0.97066100
H       -2.08523400       2.93440100       0.98214300
H       -1.99849400       1.82110700      -0.38256400
H       -1.14716100       3.36341900      -0.43356200
H        0.38553500       2.57910300       1.44592300
H        1.11426000       0.34488000       1.21934700
H       -1.42226800      -0.15994600      -0.52567900
H       -1.23836500      -2.49622300       0.28559800
H        0.26242800      -2.07400300       1.23746400
H       -0.14425100      -1.75845200      -1.81681100
H        2.29115900      -1.15899800      -0.00744900
H        2.17777500      -0.64504700      -1.68809000
H        2.24220700      -2.35732000      -1.29425300
