14
Properties=species:S:1:pos:R:3 pbc="F F F"
O       -0.65719900      -0.17232400      -1.57750300
C       -0.83438400      -0.32218400      -0.17147000
C        0.02570200      -1.44387200       0.46030500
C        0.90856400      -0.38735700       1.14805000
C       -0.01679600       0.73769200       0.60492700
O        0.59942600       1.69559400      -0.22515400
H       -0.95652700      -0.97001500      -2.03467000
H       -1.92138700      -0.37633400       0.06340700
H        0.54656100      -2.07823000      -0.26012100
H       -0.52096600      -2.09070800       1.15132000
H        1.92387200      -0.34361800       0.75226000
H        0.96712700      -0.46913000       2.23632500
H       -0.58602800       1.25731500       1.40154300
H        0.51101900       1.37888100      -1.13967500
