19
Properties=species:S:1:pos:R:3 pbc="F F F"
C       -3.45553900      -0.57889000      -0.59295800
C       -1.99800600      -0.55798500      -0.58649200
C       -0.78827700      -0.54072300      -0.57461700
C        0.67811100      -0.54138500      -0.57307500
C        1.29496100       0.65262400       0.19800000
C        0.87904400       0.64248500       1.67302700
C        2.82169900       0.64581200       0.05487100
H       -3.85768600       0.09765200       0.16367000
H       -3.83039200      -1.58235800      -0.38210000
H       -3.84582500      -0.26997800      -1.56457900
H        1.03767000      -0.52483700      -1.61129100
H        1.03662600      -1.48416700      -0.13767100
H        0.91415500       1.57990700      -0.25755400
H        1.25438600      -0.24493000       2.17918200
H       -0.20407000       0.65012500       1.76726900
H        1.27275200       1.51469300       2.19119400
H        3.25048700      -0.26035100       0.47906300
H        3.26231700       1.49572900       0.57164300
H        3.11761400       0.69688400      -0.99135800
