15
Properties=species:S:1:pos:R:3 pbc="F F F"
C       -2.60689500      -0.06562000       0.32033600
C       -1.08460500      -0.09509500       0.40665100
C       -0.43777100       0.23094100      -0.94162500
C        1.07574900       0.24777100      -1.02761400
N        2.00082700       0.02848300      -0.14743500
O        1.57295600      -0.28412400       1.12946600
H       -3.05482100      -0.29657100       1.28450800
H       -2.97451000      -0.79317800      -0.40123800
H       -2.96460200       0.91543200       0.01253200
H       -0.76022500      -1.08264700       0.74369200
H       -0.75105500       0.62214400       1.16054100
H       -0.79790800       1.21100200      -1.28728400
H       -0.80215700      -0.47950500      -1.69805000
H        1.45907800       0.49200100      -2.02938100
H        2.37789700      -0.42305400       1.66449700
