17
Properties=species:S:1:pos:R:3 pbc="F F F"
N       -2.33337000       0.78960600      -1.53847300
C       -0.87403000       0.78956300      -1.39868200
C       -0.44493000      -0.10007100      -0.23582900
O        0.97530700      -0.05379800      -0.12535600
C        1.53246600      -0.95973100       0.83092100
C        1.29863600      -0.51856900       2.27480400
H       -2.61895600       1.37546400      -2.31870500
H       -2.77724000       1.14087900      -0.69317200
H       -0.47165600       1.81190800      -1.24785100
H       -0.43115900       0.41849300      -2.33287200
H       -0.78037000      -1.14658900      -0.39472500
H       -0.92175800       0.24324300       0.70858700
H        2.61350100      -1.00702500       0.62295300
H        1.11881700      -1.97722400       0.66926800
H        1.67731800       0.48780200       2.43840500
H        1.80945200      -1.18792500       2.96456900
H        0.24033300      -0.52303200       2.52842300
