17
Properties=species:S:1:pos:R:3 pbc="F F F"
C       -1.98339200      -0.85102600       0.47910000
C       -1.83315500       0.26252500      -0.24604700
C       -0.82438100       0.51453700      -1.29208900
C        0.52116100       0.51152300      -1.24016300
C        1.46603500       0.30267800      -0.10674100
C        1.07935900       0.36528800       1.34360100
C        1.48838800      -0.93933800       0.74897700
H       -2.80004700      -0.94721000       1.18473500
H       -1.30780700      -1.69197900       0.38586400
H       -2.58602900       1.04981800      -0.14558100
H       -1.26725500       0.80041700      -2.25021400
H        1.02920200       0.76115700      -2.17389100
H        2.45886000       0.69860600      -0.32948500
H        0.03299300       0.50760200       1.58610800
H        1.77273800       0.85419700       2.02148600
H        0.72229300      -1.68859400       0.58349500
H        2.46096700      -1.34113900       1.01765100
