20
Properties=species:S:1:pos:R:3 pbc="F F F"
C       -1.50053600       0.93224400       0.01260300
C        0.03060800       0.86305400       0.07738300
C        0.57826100      -0.58662100       0.27117300
C        0.25146600      -1.12767400       1.67008300
C        0.10579100      -1.56565900      -0.81119400
C        0.65543400       1.53957300      -1.15075500
H       -1.95418300       0.46732600       0.88511200
H       -1.88343100       0.43159500      -0.87397100
H       -1.83181900       1.96827700      -0.02424200
H        0.34881600       1.43691800       0.96367300
H        1.67631500      -0.51720200       0.19576500
H       -0.82061700      -1.25061900       1.80906100
H        0.61440400      -0.45379200       2.44393800
H        0.71755500      -2.09882200       1.82458400
H       -0.96866600      -1.72694100      -0.75892600
H        0.59102800      -2.53173900      -0.68635800
H        0.34385200      -1.19863300      -1.80706000
H        0.36131200       1.04184000      -2.07241000
H        1.74228100       1.52449100      -1.09423800
H        0.33700700       2.57779400      -1.22068400
