11
Properties=species:S:1:pos:R:3 pbc="F F F"
C       -0.84291000      -0.83795700      -1.28820800
C       -1.23852400      -0.21104800      -0.16916600
O       -0.52834300       0.70077800       0.55284300
C        0.83269900       0.74872500       0.59662900
C        1.68175100      -0.27367900       0.40739000
H       -1.52838400      -1.50137200      -1.79577100
H        0.13935600      -0.69461900      -1.71488500
H       -2.25390100      -0.32760100       0.22598800
H        1.18616900       1.73994800       0.90222900
H        1.34194000      -1.26754400       0.15349400
H        2.74346600      -0.11128100       0.52634000
