21
Properties=species:S:1:pos:R:3 pbc="F F F"
C       -3.17031100      -0.13967200      -0.32831300
C       -1.66288100      -0.35549600      -0.38731800
C       -0.88469900       0.85888800       0.13079200
C        0.63739600       0.74490300       0.08528900
C        1.36973700       0.07455800      -1.04196700
C        1.37870200      -0.54020300       0.32892400
C        2.65007700      -0.54571400       1.15135200
H       -3.70289100      -1.01971500      -0.68321300
H       -3.46998300       0.70488700      -0.94587100
H       -3.49808500       0.06200800       0.68970400
H       -1.36993600      -0.57236900      -1.41970600
H       -1.40291800      -1.24163300       0.20082600
H       -1.19130700       1.06173100       1.16497300
H       -1.18617400       1.74410100      -0.44381500
H        1.13109800       1.63817800       0.47524700
H        2.28346800       0.54193000      -1.39602500
H        0.79034900      -0.41726700      -1.81674300
H        0.76959600      -1.43746900       0.44707500
H        3.22595900       0.36279300       0.98859700
H        3.28322800      -1.39365500       0.89009500
H        2.42947000      -0.61711400       2.21629700
