21
Properties=species:S:1:pos:R:3 pbc="F F F"
C       -1.82470800      -0.93867300      -1.42282800
C       -1.93723500      -0.31355400      -0.03734900
C       -1.15316300       0.99437600       0.15457400
C        0.36823500       0.90305600       0.30386600
C        1.27784500       0.44317100      -0.80048200
C        1.13367200      -0.38235200       0.44616200
C        2.27990000      -0.48372200       1.43051400
H       -2.50631900      -1.78228500      -1.51437600
H       -0.82025100      -1.30357800      -1.62223000
H       -2.07868200      -0.21858900      -2.19802600
H       -1.63553900      -1.04294900       0.72146300
H       -2.99377200      -0.09717100       0.15802900
H       -1.53974200       1.47672900       1.06058900
H       -1.39472500       1.67975600      -0.66778700
H        0.77169800       1.73644000       0.88359200
H        2.20530300       0.98921800      -0.94482600
H        0.83377300       0.06887000      -1.71653100
H        0.56089100      -1.30368200       0.33450200
H        2.80301700       0.46574300       1.52275800
H        3.00375800      -1.23523000       1.11544300
H        1.92330600      -0.76708200       2.42066100
