13
Properties=species:S:1:pos:R:3 pbc="F F F"
O       -2.54551700      -0.09931600      -0.27984900
N       -1.19063100       0.18222300      -0.33105700
C       -0.48647100      -0.58417500       0.44356500
C        0.99406000      -0.43779400       0.53199400
C        1.80198600      -0.06371900      -0.68390400
C        1.63598400       0.92075400       0.42089100
H       -2.98675400       0.52481700      -0.88679300
H       -0.96276100      -1.36329300       1.05909200
H        1.47156000      -1.13268800       1.22288000
H        1.25847100       0.11474500      -1.60611500
H        2.77315800      -0.53251500      -0.81081200
H        0.97885100       1.76693500       0.24859100
H        2.49267800       1.13057100       1.05408400
