19
Properties=species:S:1:pos:R:3 pbc="F F F"
C       -2.85820500       1.21631800      -0.13821800
C       -1.74028500       0.50759400      -0.29914800
C       -1.08446800      -0.29393900       0.79211300
C        0.41025500       0.02023600       0.95911200
C        1.32876100      -0.41658400      -0.16547400
C        0.99361500      -1.30283200      -1.11320600
C        2.70384000       0.19700800      -0.12798100
H       -3.29632400       1.77114600      -0.95878800
H       -3.36628200       1.26186300       0.81828800
H       -1.25224400       0.48714300      -1.27318400
H       -1.20990800      -1.36414100       0.58094700
H       -1.59542100      -0.10713600       1.74218800
H        0.76572700      -0.44948700       1.88709500
H        0.53845300       1.09768000       1.11614200
H        0.01322500      -1.75926500      -1.15224700
H        1.70618000      -1.59247000      -1.87546500
H        3.19342100      -0.00767400       0.82489300
H        2.64734600       1.28168900      -0.22732800
H        3.33475200      -0.18615000      -0.92573300
