17
Properties=species:S:1:pos:R:3 pbc="F F F"
C        1.28612400       1.46879900      -0.40180700
C        0.60173900       0.09574500      -0.39624900
C       -0.93134500       0.14694700      -0.38404800
C       -1.63157200       1.28508000      -0.30066900
C       -1.61385700      -1.18879200      -0.50112000
C        1.10111000      -0.72815600       0.72264100
C        1.52699300      -1.39963800       1.63235500
H        2.36570100       1.35063300      -0.45987300
H        1.05880100       2.02849000       0.50216200
H        0.96355300       2.05636500      -1.25868100
H        0.89238000      -0.42967000      -1.32725800
H       -2.71470700       1.26874600      -0.31209600
H       -1.15278400       2.25159200      -0.21083500
H       -2.69586000      -1.08457900      -0.48942300
H       -1.32086300      -1.84445500       0.31908200
H       -1.32707900      -1.69040200      -1.42696500
H        1.89571000      -1.98663000       2.43727300
