17
Properties=species:S:1:pos:R:3 pbc="F F F"
C        0.74203800       1.29569700      -1.07891500
C        0.25305100      -0.13907300      -0.83232600
C       -1.24844600      -0.17884700      -0.64036100
C       -2.08904100      -0.82064900      -1.45123200
C        0.98156900      -0.77572500       0.38407900
C        0.77597900      -0.05262400       1.63847500
C        0.62394800       0.53551800       2.68310600
H        1.81899400       1.31308600      -1.23688100
H        0.51594100       1.93416100      -0.22803000
H        0.26317700       1.72035600      -1.95841800
H        0.50782200      -0.74829200      -1.71412700
H       -1.63584600       0.35917200       0.22440300
H       -1.73417600      -1.36482200      -2.31947900
H       -3.15715300      -0.81902300      -1.27068900
H        2.05866200      -0.82063400       0.17460100
H        0.64230400      -1.81170900       0.51075800
H        0.48568300       1.05192300       3.60090100
