21
Properties=species:S:1:pos:R:3 pbc="F F F"
C       -2.11856000       1.34512300      -0.49172800
C       -2.26945500      -0.11932700      -0.09808000
C       -1.46996900      -0.50012200       1.15390300
C        0.03162100      -0.52037400       1.01837000
C        0.73467700      -0.51039500      -0.12038000
C        2.23984300      -0.58000800      -0.17173400
C        2.85931600       0.53746600      -1.00826200
H       -2.72264100       1.57423800      -1.36744800
H       -1.08398100       1.58630900      -0.72351800
H       -2.43880700       1.99953700       0.31675500
H       -1.97797000      -0.76023200      -0.93662100
H       -3.32782600      -0.32986900       0.09210800
H       -1.79749100      -1.49436400       1.49280100
H       -1.73680700       0.18166400       1.97174100
H        0.57405000      -0.57807500       1.96413200
H        0.22306900      -0.45879800      -1.08070800
H        2.54094200      -1.54624100      -0.60048800
H        2.64862100      -0.55312400       0.84370500
H        2.48684000       0.51165100      -2.03052900
H        3.94252600       0.43830600      -1.04202200
H        2.62463300       1.51481600      -0.59243600
