17
Properties=species:S:1:pos:R:3 pbc="F F F"
C       -1.81660000       0.68710100      -0.12944900
C       -0.27975800       0.69956700      -0.00887100
N        0.23179800      -0.04246400       1.17718800
C       -0.12470800      -1.45965200       1.25781800
C        0.39996500       0.17808800      -1.29073000
O        1.80303400       0.12940500      -1.10898600
H       -2.28196500       1.05927100       0.78119300
H       -2.19366100      -0.31680400      -0.31373300
H       -2.13831000       1.31991300      -0.95437200
H        0.03863100       1.74756500       0.14083600
H       -0.07779300       0.43334800       2.02802300
H        0.25818600      -2.00014400       0.38947100
H       -1.21161300      -1.63856700       1.31532000
H        0.33057200      -1.89120500       2.15266100
H        0.17828700       0.84315400      -2.14087400
H        0.00936900      -0.82751400      -1.55956600
H        1.96804600      -0.09763200      -0.17999600
