17
Properties=species:S:1:pos:R:3 pbc="F F F"
C       -1.77624100      -0.12906600      -0.86257400
C       -0.25282300       0.01959500      -0.74728500
C        0.20597600      -0.18008400       0.70262800
N        0.05884100       0.95470000       1.61662100
C        1.40586700       0.51849600       1.24294800
C        0.47131500      -0.95238100      -1.68933700
H       -2.28015500       0.58239900      -0.21257400
H       -2.09499200      -1.13031400      -0.57736700
H       -2.10785300       0.04898500      -1.88379600
H        0.01207000       1.04549500      -1.04370400
H       -0.01961000      -1.16819500       1.12649100
H       -0.17498100       0.63731100       2.55974700
H        2.00471600       0.02676300       2.01270300
H        1.95979900       1.21458300       0.61109200
H        0.25321400      -1.98666900      -1.42898800
H        1.54989500      -0.81561100      -1.63766900
H        0.16144500      -0.79700800      -2.72056100
