12
Properties=species:S:1:pos:R:3 pbc="F F F"
C       -1.74158600       0.55297500       0.37857600
C       -0.23461500       0.52038600       0.41737300
C        0.47449400       1.38328100       1.16207600
C        0.51783000      -0.50642500      -0.39984800
O        1.73592000      -0.56283600      -0.43340900
O       -0.24247600      -1.38838400      -1.11468800
H       -2.12584000       1.34871400       1.01052800
H       -2.16913100      -0.38852800       0.72896500
H       -2.10955600       0.72256200      -0.63508100
H       -0.00690400       2.14104900       1.76936500
H        1.55765800       1.32711600       1.16208800
H       -1.19051200      -1.24245600      -1.00015300
