17
Properties=species:S:1:pos:R:3 pbc="F F F"
C        0.36844500      -2.12981500      -1.29685000
O       -0.00613400      -0.85028100      -0.83140800
C        0.47835100      -0.56243600       0.47916000
C        0.00706000       0.83603400       0.90030700
N       -1.46705500       0.84142600       0.97051700
C        0.54924700       1.92481700      -0.04763400
H       -0.04601100      -2.26480700      -2.30077900
H       -0.01809200      -2.92954600      -0.63834200
H        1.46814800      -2.23606600      -1.34593900
H        1.58869000      -0.62309700       0.49306400
H        0.10862900      -1.32877100       1.19247500
H        0.40110800       1.03570600       1.91696600
H       -1.84197800       0.46212700       0.10289900
H       -1.81424600       1.79117500       1.08346800
H        0.21755200       1.74577700      -1.06750100
H        1.63778800       1.93847000      -0.04442000
H        0.19825000       2.90969900       0.25586100
