12
Properties=species:S:1:pos:R:3 pbc="F F F"
C       -1.50405200       0.74491200       1.11232600
C        0.00307700       0.60370700       1.11130200
O        0.73071200       1.29071100       0.11040100
C        0.75972300      -0.14921300       0.05943500
C        0.07344200      -0.77014500      -1.12752200
O        0.28741100      -1.90118400      -1.49560800
H       -1.79973600       1.63938400       1.65889900
H       -1.97504800      -0.10933500       1.59792200
H       -1.89734100       0.82418700       0.10196500
H        0.47348400       0.64562000       2.10922200
H        1.72697000      -0.58753500       0.34691100
H       -0.66644600      -0.10411400      -1.66650700
