19
Properties=species:S:1:pos:R:3 pbc="F F F"
C        0.49686100      -3.19363000       0.58396400
C        0.04680300      -1.92583200       0.02266600
C       -0.32586200      -0.87135200      -0.43880400
C       -0.78781600       0.39887300      -1.00781500
C       -0.23699500       1.64927700      -0.27616800
C       -0.71001300       1.69676400       1.18064200
C        1.29081000       1.72187900      -0.36863800
H        1.32954500      -3.04019300       1.27312200
H        0.83072900      -3.87160900      -0.20376600
H       -0.30955900      -3.68405800       1.13252200
H       -1.88615800       0.42218200      -0.98468600
H       -0.49852800       0.44353100      -2.06699500
H       -0.65183400       2.52847000      -0.79715100
H       -0.33239200       0.84277900       1.73801300
H       -1.79681500       1.68070400       1.23752600
H       -0.35904300       2.60239600       1.67159400
H        1.74862200       0.86208700       0.11484200
H        1.66510900       2.62115300       0.11657300
H        1.61760200       1.73668400      -1.40667200
