17
Properties=species:S:1:pos:R:3 pbc="F F F"
C       -1.17582200       0.76853900       0.54697000
C       -1.17754600      -0.77550000       0.53337700
C        0.07472900      -1.11671500      -0.33423100
C        0.01399100       0.01194900      -1.37914600
C        0.07704100       1.12218900      -0.31480900
C        1.28774400       0.66460000       0.48756500
C        1.28633200      -0.67559500       0.47597700
H       -1.11030500       1.18111200       1.55725800
H       -2.08509400       1.17221900       0.08992900
H       -2.08755500      -1.16898600       0.06896500
H       -1.11333800      -1.20600100       1.53624000
H        0.09611300      -2.14916000      -0.70658600
H       -0.90947300       0.01797600      -1.96583500
H        0.86859400       0.01698800      -2.06071300
H        0.10050300       2.16088700      -0.66920600
H        1.96225100       1.31253800       1.03931300
H        1.95948700      -1.33437400       1.01642000
