9
Properties=species:S:1:pos:R:3 pbc="F F F"
C       -2.06020400       1.09196200      -0.72901500
C       -0.85395500       0.98620800      -0.65852900
C        0.57140100       0.92734100      -0.61941700
C        1.28313800      -0.02820500       0.01854900
C        0.69528200      -1.11469900       0.74427700
N        0.26235600      -2.00522800       1.33937800
H       -3.12173100       1.14186500      -0.76223700
H        1.09957300       1.72108800      -1.14948400
H        2.37168600      -0.00199300       0.00088200
