13
Properties=species:S:1:pos:R:3 pbc="F F F"
C       -2.27667700       1.63079900      -0.54108600
C       -1.37079300       0.73757000      -0.93802700
C       -0.60434900      -0.16330100      -0.00847600
C        0.91730800      -0.03138700      -0.20386300
C        1.66773400      -0.94326300       0.65875700
N        2.25923000      -1.66121500       1.33587300
H       -2.80989400       2.24395400      -1.25701500
H       -2.51123400       1.77065900       0.50781500
H       -1.15719100       0.62310500      -2.00120000
H       -0.89369300      -1.20533600      -0.19461900
H       -0.86402800       0.05577000       1.03074400
H        1.23869800       0.99512300       0.00710400
H        1.18339200      -0.23728100      -1.24776400
