21
Properties=species:S:1:pos:R:3 pbc="F F F"
C       -1.88783000      -0.19289300      -1.14674600
C       -0.36073100      -0.16686300      -1.00189000
C        0.13909500       1.27569800      -0.76313900
C        1.65201900       1.42500300      -0.86016000
C        0.12429400      -1.15240000       0.09332400
C       -0.27774200      -0.77187900       1.49124700
C        0.56801900      -0.68001200       2.51836000
H       -2.20629300       0.43155500      -1.97950400
H       -2.37974400       0.17688900      -0.24926000
H       -2.24434500      -1.20472300      -1.33022500
H        0.06745300      -0.51864600      -1.95543500
H       -0.20084500       1.61966900       0.21874900
H       -0.33227100       1.93488100      -1.50055400
H        2.15935700       0.84566000      -0.09206900
H        1.94221900       2.46623400      -0.73611200
H        2.01783200       1.08903700      -1.82893300
H        1.21245000      -1.25373000       0.03907100
H       -0.29127100      -2.14383300      -0.13480600
H       -1.33853000      -0.58102600       1.65680900
H        1.62938700      -0.86241400       2.39508500
H        0.22185700      -0.41946800       3.51120500
