15
Properties=species:S:1:pos:R:3 pbc="F F F"
C        0.80347500      -0.48038400       2.10016700
N        0.10464900      -0.90373000       0.89010800
C        0.62518600      -0.35324700      -0.35047100
C        0.56584800       1.14920100      -0.63004400
C       -0.33609700       0.19343500      -1.35874400
O       -1.71621100       0.21265100      -1.05637000
H        0.33728000      -0.94483100       2.97197400
H        0.79422800       0.61431900       2.25189000
H        1.84924900      -0.79767600       2.06257900
H       -0.89902500      -0.72025400       0.95905100
H        1.51743300      -0.86643100      -0.72984200
H        1.39047800       1.60707500      -1.16844300
H        0.11461400       1.78119800       0.12888000
H       -0.15580800       0.00412400      -2.42405600
H       -1.90178000       0.89335400      -0.39728000
