17
Properties=species:S:1:pos:R:3 pbc="F F F"
C       -1.47229400      -0.13351800      -2.93337000
C       -0.46282600      -0.98477700      -2.22912400
C       -0.14118200      -0.93945100      -0.92930000
C       -0.75237600      -0.02260400       0.10459800
C        0.18398000       0.33872200       1.17597400
C        0.94455200       0.64140100       2.06643300
C        1.86519500       1.00472900       3.13629900
H       -1.05645900       0.26962800      -3.85704800
H       -1.81331800       0.69733800      -2.32013200
H       -2.34743100      -0.72423900      -3.21206900
H        0.04645500      -1.71669100      -2.85627600
H        0.61258000      -1.63322600      -0.56081700
H       -1.62805300      -0.51692200       0.55826200
H       -1.13659200       0.89259600      -0.36548300
H        1.85497600       2.08254400       3.30857700
H        2.88625700       0.71160800       2.88572000
H        1.59128600       0.51035700       4.07020200
