16
Properties=species:S:1:pos:R:3 pbc="F F F"
C        0.22813300      -1.60857900      -1.24662500
C       -0.23334900      -1.26794100       0.16587800
C        0.25073500       0.10130300       0.69522800
C       -0.25585800       1.30494100      -0.13609000
O       -1.67514000       1.38622600      -0.11208400
O        1.68073500       0.14551200       0.77961500
H       -0.12061000      -2.59876100      -1.53104700
H        1.31523700      -1.60907700      -1.32484300
H       -0.15982700      -0.89868000      -1.97362100
H        0.10982500      -2.04751700       0.85363700
H       -1.32699700      -1.28122800       0.19787800
H       -0.12202900       0.21659200       1.73343000
H        0.18547000       2.24026000       0.26025400
H        0.04973200       1.22062500      -1.18896400
H       -1.97898900       1.54564100       0.79113100
H        2.06545800      -0.22009900      -0.02845800
