12
Properties=species:S:1:pos:R:3 pbc="F F F"
O       -0.65416500       0.31116700       1.62244200
C       -1.08194500       0.50700400       0.30419500
C       -0.25629600       1.35546300      -0.61624600
C       -0.30971000      -0.15032600      -0.80583700
C        0.86789500      -0.94603600      -0.52720500
C        1.84726800      -1.63037300      -0.33996900
H       -0.70911800       1.13439000       2.12485100
H       -2.18037900       0.55218400       0.18736900
H        0.66965800       1.76691000      -0.23091200
H       -0.75962500       1.97050100      -1.35700200
H       -0.89278600      -0.50290100      -1.66091400
H        2.70229600      -2.22481200      -0.13255600
