15
Properties=species:S:1:pos:R:3 pbc="F F F"
C        0.15169200      -0.40536600       1.66371400
C       -0.21125600       0.58081300       0.58593900
C       -0.58939200       1.83335300       0.89129900
C       -0.15379600       0.14023200      -0.84411900
C        0.98138700      -0.68668800      -1.36764800
N       -0.34083900      -1.27345500      -1.20558400
H        0.19299600       0.07855200       2.63578300
H        1.11863600      -0.87025700       1.46970100
H       -0.58501900      -1.20867500       1.72122600
H       -0.63366800       2.17347400       1.91795200
H       -0.86298000       2.53909100       0.11640500
H       -0.61483000       0.83993400      -1.55022900
H        1.76635000      -1.00719700      -0.67924800
H        1.30880100      -0.54484300      -2.39906700
H       -0.37621800      -1.85996000      -0.36854300
