12
Properties=species:S:1:pos:R:3 pbc="F F F"
O       -0.19639200       1.91789400      -0.67422000
C       -0.73101900       0.82179200       0.05087800
C        0.38295000      -0.15689200       0.37542900
C        0.64903800      -1.34631800      -0.48183200
N       -0.02295300      -1.49638800       0.80947300
H       -0.89682800       2.55083500      -0.87814500
H       -1.52734700       0.32240900      -0.53792900
H       -1.20951300       1.18951200       0.98512700
H        1.24300300       0.28064900       0.89658900
H        1.67044800      -1.72367100      -0.56067000
H        0.02359800      -1.53462900      -1.35562200
H        0.62262800      -1.86503300       1.51124100
