16
Properties=species:S:1:pos:R:3 pbc="F F F"
C        1.39025000       0.73379600      -0.80917300
C        0.81774700      -0.39721400       0.06352500
C       -0.73612700      -0.46511500       0.06789900
O       -1.23836800       0.68155800       0.78319000
C       -1.37644300      -0.55070100      -1.31989700
O        1.22614500      -0.22333800       1.42166300
H        2.46480300       0.80638000      -0.66422900
H        0.95402800       1.69590600      -0.54422500
H        1.20255400       0.55506400      -1.86619700
H        1.22956100      -1.36434500      -0.28734500
H       -1.03974900      -1.34415100       0.66438600
H       -1.21027600       1.45773900       0.20634300
H       -1.15600800       0.33366400      -1.91632400
H       -2.45784500      -0.63388500      -1.23739600
H       -1.01156500      -1.42097100      -1.86209500
H        0.54971100       0.32424300       1.85413500
