18
Properties=species:S:1:pos:R:3 pbc="F F F"
C       -2.52875800       0.91386800      -0.69457900
C       -1.00828400       0.90093900      -0.60571500
C       -0.42277200      -0.51465000      -0.66908000
C        1.11067500      -0.52310400      -0.57704600
O        1.60454000       0.06511300       0.62950400
C        1.43847300      -0.72863100       1.78594500
H       -2.91145400       1.93129200      -0.64933300
H       -2.97538900       0.35156000       0.12324000
H       -2.87026200       0.46889800      -1.62735100
H       -0.68781400       1.37875300       0.32452800
H       -0.58959000       1.50221800      -1.42009000
H       -0.72115600      -0.99718300      -1.60691800
H       -0.84822100      -1.12408700       0.13564800
H        1.54305200       0.05917500      -1.40702400
H        1.49016200      -1.56277600      -0.66762800
H        1.95212200      -0.23133000       2.61515600
H        1.87232300      -1.73626600       1.64960700
H        0.37390600      -0.85169000       2.05698100
