9
Properties=species:S:1:pos:R:3 pbc="F F F"
C       -1.07418600      -0.30859700       0.42604800
O        0.33668800      -0.27930300       0.38561400
C        0.85402600       0.49124800      -0.67821700
H       -1.37983600      -0.92503000       1.27711000
H       -1.49607600      -0.74078600      -0.50017300
H       -1.49608400       0.70620200       0.54787300
H        1.94665600       0.45484100      -0.62791900
H        0.52637600       1.54513800      -0.61037400
H        0.52641600       0.09815300      -1.65842000
