13
Properties=species:S:1:pos:R:3 pbc="F F F"
C        0.42840200      -1.65564600      -0.98099700
C       -0.31774300      -0.36644000      -0.65372700
O       -1.01467300       0.22417000      -1.47048900
N       -0.25925900       0.05304800       0.69570400
C        0.96559700       0.45149800       1.36948700
C       -0.10652200       1.44954000       1.06248300
H        0.30855100      -1.91026600      -2.02957400
H        0.04767900      -2.47843300      -0.37744300
H        1.49174400      -1.55807100      -0.76380900
H        1.88447200       0.46588300       0.77790800
H        1.08791000       0.08307400       2.39067300
H        0.05029700       2.15761600       0.24725900
H       -0.75685200       1.80178900       1.86549400
