17
Properties=species:S:1:pos:R:3 pbc="F F F"
C       -2.52422600      -0.61890000       0.56337600
N       -1.06523500      -0.60190500       0.59146300
C       -0.48133300       0.45868300      -0.24406900
C        1.03451100       0.42487100      -0.24610700
C        1.75523300       1.51900800       0.03542600
C        1.69586800      -0.87223500      -0.62684900
H       -2.89227800      -1.43815500       1.18511200
H       -2.93912700      -0.74774400      -0.45350700
H       -2.92006700       0.31913000       0.96280800
H       -0.70156800      -1.51323000       0.30459900
H       -0.83327500       1.43349300       0.12251200
H       -0.83853900       0.37934900      -1.29744800
H        1.27704300       2.45013900       0.31485700
H        2.83793600       1.50451800       0.00059000
H        1.28910700      -1.25866300      -1.56208600
H        1.52741200      -1.63524900       0.13485700
H        2.76968900      -0.74881300      -0.74319900
