17
Properties=species:S:1:pos:R:3 pbc="F F F"
C       -2.75310100       0.57310100      -1.24439900
N       -1.29332100       0.53075400      -1.21869000
C       -0.74379200      -0.02593800       0.02590400
C        0.77987400      -0.01304400      -0.01194700
O        1.27937100      -0.56415200       1.20222500
C        2.68950200      -0.60801400       1.26054400
H       -3.08999000       1.01595100      -2.18447200
H       -3.18499100       1.16136200      -0.41471000
H       -3.15964400      -0.43968600      -1.17684400
H       -0.91739200       1.46926500      -1.37631200
H       -1.10538900      -1.05731800       0.14445600
H       -1.09979100       0.52956900       0.91870800
H        1.16256200       1.02433500      -0.14390600
H        1.15973300      -0.59564700      -0.87853400
H        2.97992700      -1.05629000       2.21561800
H        3.12885200       0.40455800       1.19132200
H        3.10950400      -1.21478100       0.43709800
