13
Properties=species:S:1:pos:R:3 pbc="F F F"
C       -3.50232900       0.27890700       0.70108300
C       -2.00489900       0.28841400       0.72452700
C       -1.24089100      -0.12323200      -0.30865000
C        0.18505300      -0.11820700      -0.29666500
C        1.40731500      -0.14235600      -0.35777500
C        2.79073000      -0.15319400      -0.38547000
C        4.00802600      -0.16563400      -0.41707400
H       -3.91013400       0.65050900       1.63701100
H       -3.89376400      -0.72705100       0.54187600
H       -3.89391200       0.90170600      -0.10474000
H       -1.52132400       0.64938100       1.62999600
H       -1.70915700      -0.48866900      -1.22543000
H        5.07025800      -0.17406700      -0.43856800
