19
Properties=species:S:1:pos:R:3 pbc="F F F"
C       -2.04204000      -0.90353900      -0.34980100
C       -0.52814900      -0.80313400      -0.47879000
C        0.32268200      -1.85616100       0.25944300
C        1.18035100      -0.73966800       0.86325800
C        0.18054000       0.32049100       0.34077900
C        0.74803800       1.47185600      -0.43763600
C        0.44488400       2.75315900      -0.22126500
H       -2.41741800      -1.78984100      -0.85944000
H       -2.52771000      -0.03359700      -0.78843800
H       -2.34522400      -0.96568100       0.69393100
H       -0.25258800      -0.74731500      -1.54138400
H        0.85022400      -2.57344600      -0.37492800
H       -0.24128300      -2.41715700       1.00845000
H        2.16878200      -0.66044500       0.40404800
H        1.31044400      -0.76903400       1.94826500
H       -0.46653200       0.69243700       1.14643200
H        1.44981400       1.21537400      -1.23301400
H       -0.24843400       3.04664700       0.55863000
H        0.88208600       3.54403600      -0.81847100
