23
Properties=species:S:1:pos:R:3 pbc="F F F"
C       -0.07771900       2.45379700       0.23846500
C       -0.67756800       1.44027000      -0.73005200
C       -0.02267000       0.03193900      -0.77832900
C       -0.56640600      -0.94759700       0.31423700
C       -0.01836400      -0.70799800       1.72661000
C       -0.32564000      -2.40741100      -0.10151100
C        1.50757100       0.10171100      -0.82543700
H       -0.60996400       3.40020900       0.16120300
H        0.96894100       2.64557700       0.01355400
H       -0.14288500       2.12346200       1.27190000
H       -0.62250800       1.86671400      -1.73821600
H       -1.74528600       1.32343400      -0.51256800
H       -0.34984400      -0.40146900      -1.73914100
H       -1.65856200      -0.79839800       0.35415800
H        1.06110900      -0.83620800       1.76224900
H       -0.45748500      -1.42113400       2.42203900
H       -0.25346100       0.29056200       2.08528300
H        0.73708700      -2.63548800      -0.15126700
H       -0.75779400      -2.61209500      -1.07930300
H       -0.77665500      -3.09078700       0.61538000
H        1.92168800       0.51393400       0.09155100
H        1.83427100       0.73141800      -1.65091900
H        1.93612100      -0.88799600      -0.96979600
