17
Properties=species:S:1:pos:R:3 pbc="F F F"
C        1.35628200       1.45968300       0.18014600
C        0.80472200       0.04752800      -0.01273100
C       -0.74806300      -0.02794700       0.04123000
N       -1.14444900      -1.45791600       0.06047700
C       -1.42228700       0.73140500      -1.11730500
O        1.33247800      -0.79513800       1.00942600
H        2.44252000       1.43381900       0.21369500
H        1.00474000       1.89189500       1.11494700
H        1.05788600       2.11765100      -0.63374200
H        1.13925700      -0.33852200      -1.00851000
H       -1.08745900       0.41047000       0.99496900
H       -0.93981000      -1.89113300      -0.83829800
H       -2.14474000      -1.54185300       0.22830100
H       -1.08909000       0.34936600      -2.08097100
H       -1.19429700       1.79421500      -1.07975100
H       -2.50388400       0.62003500      -1.07101000
H        0.72227600      -1.54343800       1.11357700
