14
Properties=species:S:1:pos:R:3 pbc="F F F"
C       -2.02177100       0.09956400      -0.60936100
C       -0.50294300      -0.00858400      -0.66039500
O        0.11603200       1.13306600      -0.06936000
C        1.30851800       0.71686600       0.59005500
C        1.20884400      -0.80809500       0.67840600
O       -0.04159500      -1.13666600       0.08037100
H       -2.36203300       0.96866600      -1.16786000
H       -2.36985400       0.19707000       0.41625500
H       -2.48200700      -0.78584500      -1.04216800
H       -0.15734400      -0.10337100      -1.73535300
H        1.36228100       1.20781600       1.57745000
H        2.19959000       1.04600100       0.01674500
H        1.22061800      -1.18713500       1.71487100
H        2.03736200      -1.31291700       0.13973900
