15
Properties=species:S:1:pos:R:3 pbc="F F F"
C       -1.57155300      -0.09329500      -0.57175200
C       -0.08888200      -0.26167100      -0.27752700
C        0.32692100      -0.20482200       1.19536600
N       -0.13448500       1.03807900       1.81712800
C        0.77363000      -0.98873200      -1.24249800
O        0.79642000       0.43548400      -1.17469900
H       -2.14588200      -0.92374200      -0.16015500
H       -1.75215700      -0.04988400      -1.64308400
H       -1.95015200       0.82299300      -0.12266100
H        1.42740600      -0.32309600       1.26319000
H       -0.11139500      -1.05842500       1.73828500
H        0.20091800       1.83775300       1.28470500
H        0.21301200       1.11281500       2.76994400
H        0.35118800      -1.39795500      -2.16919900
H        1.69640000      -1.47976400      -0.90485400
