17
Properties=species:S:1:pos:R:3 pbc="F F F"
C       -0.19851800      -1.86833700      -1.24131400
C       -0.62183700      -0.41010300      -1.37441500
C       -0.05057700       0.53628600      -0.29330300
C       -0.51586200       0.14192800       1.13415700
O       -0.20303500       1.15840400       2.07715400
N        1.42352000       0.61443800      -0.40065100
H       -0.63195900      -2.46361200      -2.04235700
H       -0.52662700      -2.29741000      -0.29637100
H        0.88266500      -1.97321800      -1.29994800
H       -1.71555700      -0.34911700      -1.34821900
H       -0.31488400      -0.03936000      -2.35695600
H       -0.43880400       1.54793900      -0.50480500
H       -0.04814500      -0.81569200       1.44518600
H       -1.60603800      -0.00126000       1.15853500
H        0.73730700       1.37219300       2.02077600
H        1.85024600      -0.27708700      -0.16009900
H        1.79220300       1.32967100       0.22082700
