16
Properties=species:S:1:pos:R:3 pbc="F F F"
C        0.74567900       1.09119400      -1.05840100
C       -0.17175800       0.87539800       0.16238500
C       -0.20459900      -0.56809800       0.68728700
C        0.13832000      -1.75753500      -0.14192500
N        1.03931500      -1.30618900       0.92121200
N       -1.55949500       1.30629200      -0.11738900
H        0.78779600       2.14837800      -1.31259400
H        0.37867400       0.55584500      -1.93196500
H        1.76231300       0.75747600      -0.85912700
H        0.20351900       1.51878600       0.98130500
H       -0.95118800      -0.71516400       1.47664000
H        0.47104700      -1.61647600      -1.17171400
H       -0.36150600      -2.70917900       0.04621500
H        1.84044200      -0.80880900       0.52506100
H       -1.96188600       0.74330400      -0.86320300
H       -1.57379800       2.27937200      -0.41345200
