16
Properties=species:S:1:pos:R:3 pbc="F F F"
N       -1.95939100      -0.43514200      -0.37761900
C       -0.50416600      -0.34929200      -0.52619600
C        0.31008300      -1.46354700       0.16500200
C        1.19588900      -0.40365800       0.83591000
C        0.20289400       0.69799800       0.36400000
N        0.74033900       1.87375500      -0.32620500
H       -2.32967700      -1.21711800      -0.91275800
H       -2.40010100       0.42074900      -0.70665500
H       -0.20359500      -0.23638000      -1.59229900
H        0.82493200      -2.16645500      -0.49586600
H       -0.28140900      -2.03690600       0.88106600
H        2.18269500      -0.31722000       0.37415300
H        1.33262400      -0.50742300       1.91550900
H       -0.44415300       1.03789100       1.18652800
H        1.36974700       1.59609900      -1.07578700
H        1.25410800       2.46746700       0.32057600
