14
Properties=species:S:1:pos:R:3 pbc="F F F"
C       -0.74025200      -1.01983400      -0.16857500
C       -1.19350700       0.40361700       0.18140000
C        0.02201500       1.26457000      -0.16342800
C        1.23263000       0.33908500       0.04179400
N        0.72349800      -1.04867300       0.01966600
H       -0.99740900      -1.25529600      -1.21725600
H       -1.21875600      -1.78751300       0.45330400
H       -1.42357200       0.47911900       1.24960700
H       -2.09279800       0.70616700      -0.36179100
H        0.08545300       2.16746800       0.44997800
H       -0.03290700       1.59422800      -1.20585100
H        1.73439700       0.54217000       1.00144300
H        1.99341000       0.49745700      -0.74262600
H        0.96238000      -1.52771300       0.88838700
