13
Properties=species:S:1:pos:R:3 pbc="F F F"
C       -1.41861000      -1.20914200      -0.31601300
C       -0.23259000      -1.19799900       0.29936300
C        0.69715900      -0.03714600       0.37558300
C        0.82813500       0.92935000      -0.77258100
C        0.17335000       1.37093500       0.48904400
H       -2.03387400      -2.09957500      -0.32450400
H       -1.80375400      -0.33349300      -0.82492100
H        0.11031700      -2.10540800       0.79727400
H        1.61741000      -0.23978300       0.92425700
H        0.19750100       0.76303200      -1.63994600
H        1.81826200       1.31361600      -0.99779900
H       -0.90337800       1.50624800       0.48097100
H        0.71286000       2.05938600       1.13229200
