17
Properties=species:S:1:pos:R:3 pbc="F F F"
N       -0.07212300       1.95161800      -1.33350600
C       -0.53917000       1.06637700      -0.26693600
C       -0.00365600      -0.37059500      -0.45340500
C       -0.63699100      -1.34126700       0.56914600
O       -0.24142400      -1.06418500       1.90222700
C        1.52715400      -0.41496600      -0.39068800
H       -0.44409600       2.88975700      -1.21218400
H       -0.35916700       1.60219500      -2.24417500
H       -1.64982200       1.03227900      -0.21298000
H       -0.19922500       1.47398000       0.69794400
H       -0.31592600      -0.70947700      -1.45591300
H       -1.74594200      -1.29740100       0.48473000
H       -0.33629400      -2.37686100       0.34895000
H       -0.33176800      -0.11933800       2.08080600
H        1.87789900      -0.18018500       0.61209600
H        1.96067100       0.30537500      -1.08040200
H        1.89590700      -1.40546500      -0.65084700
