13
Properties=species:S:1:pos:R:3 pbc="F F F"
O       -1.80572900      -0.88540000      -1.21853500
C       -0.72368800      -1.14839700      -0.69963100
N       -0.03809400      -0.27070700       0.09827300
C       -0.22467300       1.16309500       0.29178200
C        1.21047200       1.25094300       0.84485700
C        1.33704100      -0.26113100       0.57445700
H       -0.21321200      -2.15482800      -0.80524200
H       -1.02856100       1.41567300       1.00213600
H       -0.41128500       1.71414100      -0.64316300
H        1.28330400       1.53526800       1.89659300
H        1.89198300       1.87877600       0.26762400
H        1.51290800      -0.89357700       1.46217600
H        2.08244100      -0.54437200      -0.18854500
