19
Properties=species:S:1:pos:R:3 pbc="F F F"
C       -1.74704900      -1.35695800      -0.50635000
C       -0.23228700      -1.20578600      -0.43990900
C        0.26361800       0.24486400      -0.64473900
C       -0.23216400       1.21767300       0.44853900
N        0.27495900       0.87269600       1.77896300
C        1.79277000       0.27921700      -0.75544200
H       -2.03282200      -2.40397500      -0.42542800
H       -2.13738600      -0.97607100      -1.44841200
H       -2.23937100      -0.81623300       0.29953300
H        0.22169900      -1.83806600      -1.21093600
H        0.13301400      -1.59107800       0.51772900
H       -0.15338300       0.60400300      -1.60080300
H       -1.34218700       1.25599200       0.42856500
H        0.11065700       2.23346300       0.20114300
H       -0.03300000      -0.05744000       2.05072100
H       -0.06049900       1.53795600       2.47058100
H        2.25571300      -0.02902700       0.17900800
H        2.14081300       1.28457300      -0.98473000
H        2.14271500      -0.38702200      -1.54231000
