13
Properties=species:S:1:pos:R:3 pbc="F F F"
C       -2.62581600       0.33778400       0.35146400
O       -1.20969300       0.11871800       0.42651800
N       -0.62592700       0.20494700      -0.81842800
C        0.66804400       0.01367900      -0.81303600
C        1.49305500      -0.26892000       0.36045100
C        2.82082200      -0.45623400       0.30145100
H       -3.01878800       0.25400600       1.36736500
H       -3.10872900      -0.41434700      -0.28880800
H       -2.84972300       1.33858200      -0.04473600
H        1.16207600       0.07442100      -1.78888700
H        0.97999300      -0.32505600       1.31865500
H        3.35621700      -0.40587600      -0.64049700
H        3.40135700      -0.66396200       1.19177800
