21
Properties=species:S:1:pos:R:3 pbc="F F F"
C       -1.22896500      -0.10017200      -2.40031200
C       -1.54208700       1.13258100      -1.56190900
C       -1.01556100       1.03050800      -0.12202500
C        0.48881600       0.98169800      -0.05085000
C        1.23359100       0.21857700       0.76062300
C        0.73700500      -0.76786100       1.78638100
C        1.50540900      -2.08629800       1.75087700
H       -1.60807100       0.01258400      -3.41416800
H       -1.68201900      -0.99077000      -1.96934000
H       -0.15590000      -0.26900000      -2.45751000
H       -2.62589600       1.28981800      -1.53504200
H       -1.11350900       2.01874100      -2.04252500
H       -1.45468200       0.15692300       0.36960800
H       -1.37067000       1.90739200       0.43878900
H        1.00717200       1.66012400      -0.73006400
H        2.31841200       0.31374800       0.69743100
H       -0.33182400      -0.96066000       1.65285000
H        0.84412000      -0.32493600       2.78684000
H        1.37463700      -2.58924200       0.79537200
H        1.15783800      -2.75728700       2.53384700
H        2.57114300      -1.92163600       1.89720500
