17
Properties=species:S:1:pos:R:3 pbc="F F F"
C       -1.12541000       1.25520500       0.96076100
C       -1.38757900       0.86119300      -0.48726300
N       -0.64965400      -0.34332100      -0.90292800
C        0.81007300      -0.17253800      -1.00461000
C        1.58025800      -0.60900300       0.21907800
C        1.07983400      -1.32318600       1.22657900
H       -1.71266400       2.13208800       1.22693000
H       -0.07606500       1.49212900       1.11932600
H       -1.39236300       0.44943500       1.64064500
H       -1.15012000       1.72585100      -1.14541900
H       -2.45919800       0.65514400      -0.62389500
H       -1.01596800      -0.65682900      -1.80349800
H        1.07924300       0.87613800      -1.24746700
H        1.16382500      -0.77070400      -1.86081200
H        2.63527900      -0.33098200       0.22963300
H        0.03648500      -1.61549600       1.23234500
H        1.69607200      -1.62355100       2.06543800
