17
Properties=species:S:1:pos:R:3 pbc="F F F"
C       -2.62535700      -1.05047900      -0.54278900
C       -1.13233400      -1.05213400      -0.43998200
C       -0.35816000       0.00906200      -0.69898400
C        1.14509600       0.00256900      -0.60940100
C        1.68986700       1.08283300       0.33773000
N        1.30909200       0.80624000       1.72290300
H       -2.96641600      -1.78926300      -1.27016000
H       -3.00438500      -0.07664000      -0.84445300
H       -3.08285400      -1.31431000       0.41232400
H       -0.66970300      -1.99083700      -0.13490400
H       -0.82285500       0.94896300      -1.00048700
H        1.56631800       0.17609500      -1.60943200
H        1.49533100      -0.98205000      -0.28612500
H        1.33227800       2.07913600      -0.00101100
H        2.78832500       1.11090800       0.26839100
H        0.30336200       0.67144100       1.79279200
H        1.58228500       1.57177300       2.33331100
