16
Properties=species:S:1:pos:R:3 pbc="F F F"
C       -2.47398900      -0.99925500       0.03118000
C       -0.96063000      -1.00061400      -0.13736900
C       -0.26775400       0.03068300       0.77434000
N        1.20001100      -0.01575500       0.67511200
N        1.88632800       0.80663800      -0.18152700
C        1.30277000       1.34968100      -1.20334400
H       -2.93778800      -1.73606700      -0.62083500
H       -2.89552300      -0.02558300      -0.21148700
H       -2.75481500      -1.23575200       1.05605200
H       -0.70537600      -0.79665900      -1.18105300
H       -0.56727800      -1.99746100       0.08603800
H       -0.53235000      -0.17648800       1.82037400
H       -0.63639000       1.04494100       0.54408100
H        1.67211700      -0.09748500       1.57966500
H        1.91173700       1.96615600      -1.86516200
H        0.23891100       1.23524600      -1.45161000
