19
Properties=species:S:1:pos:R:3 pbc="F F F"
C       -2.13672400      -0.85342300      -1.22983200
C       -1.29423100      -1.42933400      -0.37189800
C       -0.80830200      -0.79683300       0.90382200
C        0.72111200      -0.83886700       1.04995700
C        1.45307600       0.05023700       0.03191500
C        1.22056200       1.51898700       0.26020800
C        0.82142600       2.37710100      -0.67886000
H       -2.46542000      -1.36661500      -2.12536900
H       -2.51966300       0.14631200      -1.06150900
H       -0.92690700      -2.43622700      -0.57659100
H       -1.25122500      -1.33648100       1.75277600
H       -1.16175800       0.23610200       0.96947400
H        1.06749800      -1.87244500       0.93796700
H        0.99346300      -0.52753600       2.06470000
H        1.15615800      -0.22285500      -0.98464100
H        2.53080600      -0.15024700       0.11079300
H        1.41335000       1.88244500       1.27088500
H        0.61650500       2.05139100      -1.69201300
H        0.68568400       3.42894200      -0.45834000
