12
Properties=species:S:1:pos:R:3 pbc="F F F"
N        1.47620500       0.09687200      -0.25507200
C        0.87084700      -1.01798400       0.05966600
C       -0.54228100      -0.82128800       0.48168800
C       -0.69011200       0.68236900       0.37354000
N        0.57851900       1.16510100      -0.15164400
C       -1.45575800      -0.20535800      -0.56065700
H        1.40537300      -1.96635900       0.04007800
H       -0.98770700      -1.43593500       1.26586100
H       -1.21347200       1.32491900       1.08694000
H        0.99005700       1.97878700       0.31388500
H       -1.15175500      -0.25267000      -1.60110700
H       -2.52173800      -0.30899800      -0.38406300
