14
Properties=species:S:1:pos:R:3 pbc="F F F"
C       -0.90857700      -1.21266900       1.30737300
C        0.60342900      -1.06099500       1.20463600
C        1.04942800      -0.36497700      -0.08207900
O        0.61261200       1.01926000      -0.08627400
C       -0.38181500       1.35161700      -0.93437100
O       -0.92515100       0.57881500      -1.70279900
H       -1.18463800      -1.71092800       2.23416600
H       -1.29877300      -1.79795400       0.47790800
H       -1.39741200      -0.24136200       1.28881700
H        1.07772100      -2.04764000       1.24609300
H        0.97906000      -0.49994700       2.06644300
H        0.64224200      -0.85893800      -0.97556700
H        2.14892600      -0.34985300      -0.15337300
H       -0.64159900       2.44416900      -0.84525200
