10
Properties=species:S:1:pos:R:3 pbc="F F F"
C       -1.98496000       0.40543400       0.55430100
N       -1.34620400      -0.10526700      -0.43822400
N       -0.48954800      -1.14242800      -0.30876100
C        0.78976700      -0.95520500      -0.15826100
C        1.42583700       0.32808000       0.00087500
C        2.01226900       1.38161700       0.13186300
H       -2.71640200       1.19237000       0.35720400
H       -1.82467900       0.09932900       1.59922400
H        1.43890000      -1.83933400      -0.14472900
H        2.49496800       2.32194200       0.24452800
