17
Properties=species:S:1:pos:R:3 pbc="F F F"
C       -1.25214400      -1.77802400      -0.15203800
C       -1.40771200      -0.29436400      -0.46165600
C       -0.83170500       0.61754000       0.63120300
C        0.68762600       0.77570000       0.62630100
C        1.46481000       1.11293900      -0.60075800
N        1.52903600      -0.23027900      -0.02424500
H       -1.67136400      -2.38478300      -0.95241300
H       -1.76676600      -2.03905700       0.77135300
H       -0.20377000      -2.04165700      -0.03985100
H       -2.47217900      -0.06333900      -0.58376100
H       -0.93266600      -0.06751700      -1.42100000
H       -1.14396500       0.24299200       1.61352700
H       -1.28075100       1.61567500       0.53939300
H        1.08627000       1.18563200       1.56554200
H        2.35219500       1.74286800      -0.50480100
H        0.96198600       1.18100000      -1.56638100
H        2.40250800      -0.36261000       0.48979400
