21
Properties=species:S:1:pos:R:3 pbc="F F F"
C       -0.29553900       1.18276800      -1.90179100
C       -0.57592900      -0.20529000      -1.34059600
C        0.02889300      -0.46665200       0.07756800
C       -0.57416400       0.53051600       1.06466300
C        0.08819700       1.35176500       1.87894400
C       -0.39111300      -1.89334400       0.52047700
C        1.56764000      -0.39184900       0.03021500
H       -0.79827600       1.31515600      -2.85791600
H        0.76861700       1.33994500      -2.06281700
H       -0.64939400       1.95767900      -1.22539600
H       -0.19204800      -0.96330500      -2.03167100
H       -1.65960400      -0.35736800      -1.28764800
H       -1.66545800       0.53739300       1.09081100
H        1.17017000       1.39196200       1.90538300
H       -0.44335100       2.01558900       2.55052000
H       -1.47471700      -1.98494300       0.56516000
H        0.00809100      -2.12702700       1.50485300
H       -0.01865300      -2.63859700      -0.18002700
H        1.90967600       0.60534700      -0.23540700
H        1.95812400      -1.08966000      -0.70781900
H        1.99891000      -0.64964800       0.99509900
