14
Properties=species:S:1:pos:R:3 pbc="F F F"
C       -0.54049800       0.58505700       1.71564100
C       -1.14324600       0.43337500       0.33706100
O       -0.44898300       1.03416500      -0.75330400
C       -0.53008500      -0.39508800      -0.74509100
C        0.73563800      -1.16531000      -0.57470700
C        1.93144300      -0.61174000      -0.36103800
H       -0.68859000       1.59745200       2.08972600
H        0.52785900       0.38312400       1.70235800
H       -1.01154100      -0.10015700       2.42031900
H       -2.23779300       0.57805500       0.29218100
H       -1.22095800      -0.80509500      -1.50297800
H        0.64335800      -2.25019900      -0.64588200
H        2.03899700       0.46540400      -0.31254000
H        2.82102100      -1.21966800      -0.24794100
