12
Properties=species:S:1:pos:R:3 pbc="F F F"
C       -0.10680000      -1.32898900       1.36843200
N       -0.73357400      -0.42021900       0.43233800
C       -0.09108700       0.43343500      -0.44621200
O       -0.76657400       1.15508800      -1.18877700
C        1.43165400       0.46056000      -0.47452900
H       -0.88492000      -1.86049600       1.91566900
H        0.52214200      -0.80527300       2.10194000
H        0.52241000      -2.07747000       0.86669400
H       -1.74882000      -0.39584800       0.40757600
H        1.88608900      -0.22711700       0.23328300
H        1.78424700       1.46616200      -0.25405900
H        1.78386400       0.21083400      -1.47340600
