13
Properties=species:S:1:pos:R:3 pbc="F F F"
N       -2.17531400      -1.68175400       0.53419900
C       -1.15743600      -1.32195800       0.13622500
C        0.13996600      -0.87316900      -0.37306100
C        0.65449800       0.36841700       0.34910100
C        1.66672700       1.24633000      -0.32155200
C        0.26596900       1.73358900      -0.12852200
H        0.04450600      -0.67464500      -1.44687600
H        0.85492400      -1.70036700      -0.26673900
H        0.75917100       0.24551000       1.42734600
H        1.97791500       0.98963200      -1.32916200
H        2.44757200       1.68363000       0.29187500
H       -0.36885700       1.80623100      -1.00541900
H        0.09362100       2.50303000       0.61643600
