13
Properties=species:S:1:pos:R:3 pbc="F F F"
O       -0.82568500       1.54225300       1.56736500
C       -1.31442300       0.24120000       1.30095900
C       -0.78815100      -0.23830700      -0.05053100
C        0.74619600      -0.24226700      -0.09241400
C        1.27034100      -0.69783500      -1.37931300
N        1.68697800      -1.05924300      -2.38936700
H       -1.18864700       1.86798700       2.40088900
H       -2.42473800       0.24233800       1.29765500
H       -1.00082800      -0.45592800       2.10845900
H       -1.16903300       0.41269200      -0.84266700
H       -1.17094600      -1.24345200      -0.25438800
H        1.14606300      -0.89083500       0.69724200
H        1.12098100       0.76713200       0.10725400
