15
Properties=species:S:1:pos:R:3 pbc="F F F"
N       -0.25621300       2.29070100      -0.45299000
C       -0.87853600       0.96898800      -0.52486500
C       -0.22402200       0.03131500       0.49255300
C       -0.59427600      -1.45543000       0.43769600
C        0.87331000      -1.69387400       0.10525100
O        1.15843300      -0.28205900       0.14499700
H       -0.55821700       2.87724000      -1.22684300
H        0.75618900       2.19237500      -0.49132500
H       -0.80317900       0.52421800      -1.53883000
H       -1.95550700       1.05525500      -0.30528100
H       -0.26951700       0.47395200       1.50940700
H       -1.30143200      -1.73141500      -0.34992100
H       -0.94238800      -1.89100000       1.37821300
H        1.08519900      -2.13083500      -0.88846700
H        1.45603000      -2.25422100       0.86019000
