19
Properties=species:S:1:pos:R:3 pbc="F F F"
C       -2.96090200       0.34055500       1.43353900
C       -1.49327700       0.41637000       1.15281500
C       -0.97079400       0.82487400      -0.01032500
C        0.51349300       0.90659300      -0.29594100
C        1.23278900      -0.43468500      -0.16587800
C        1.33956500      -1.35793000      -1.33994100
C        2.55549100      -0.64277300      -0.83777400
H       -3.25859100      -0.68134400       1.67571300
H       -3.54856000       0.67257500       0.58052200
H       -3.22641800       0.95804000       2.29344600
H       -0.83171200       0.11061600       1.96351700
H       -1.64411000       1.12778800      -0.81231900
H        0.98053900       1.62755500       0.39059100
H        0.66832700       1.30274900      -1.30375500
H        1.10969600      -0.91464300       0.80658000
H        0.92040900      -1.03360400      -2.28693200
H        1.26952700      -2.42622500      -1.16092400
H        2.95229200       0.16339500      -1.44662900
H        3.31041200      -1.22493400      -0.31877900
