16
Properties=species:S:1:pos:R:3 pbc="F F F"
C       -0.68769800      -0.02794600       1.73117900
C       -1.04082400       0.09620800       0.26384300
C       -0.17910600       0.84886700      -0.71650100
C       -0.26476700      -0.65233600      -0.81695200
C        0.90234400      -1.55697000      -0.48097800
O        1.00749700       1.47546500      -0.29878100
H       -1.12767600       0.78916700       2.30181100
H        0.38799400      -0.00292200       1.89564700
H       -1.06404000      -0.96178700       2.14846700
H       -2.11659500       0.15519100       0.08394200
H       -0.67938200       1.44413200      -1.48783400
H       -0.88499400      -1.03438700      -1.63082200
H        1.54294000      -1.12630500       0.28617100
H        1.51717400      -1.73359100      -1.36299200
H        0.55841700      -2.52571600      -0.11879000
H        1.42649400       0.94555800       0.39110600
