13
Properties=species:S:1:pos:R:3 pbc="F F F"
C       -1.56907000       0.77792800      -0.23654300
C       -0.03534400       0.73700200      -0.20736800
C        0.46058000       0.41989200       1.14219300
N        0.86637500       0.14306700       2.18295900
C        0.53161400      -0.29254800      -1.22677700
O        0.11450700      -1.60453000      -0.92414700
H       -1.95670300       1.47297400       0.50500100
H       -1.98076100      -0.20749300      -0.03323600
H       -1.91663300       1.09327300      -1.21818900
H        0.35540300       1.73421900      -0.47145600
H        1.63966300      -0.22830200      -1.23911500
H        0.17250600      -0.04994200      -2.23740200
H        0.37916800      -1.83360800      -0.02217300
