13
Properties=species:S:1:pos:R:3 pbc="F F F"
C       -2.28767500       0.93125700       0.02074800
C       -0.80211000       0.86878500       0.14832000
C       -0.06688900      -0.23937500      -0.06765500
C        1.38461500      -0.27451300       0.06285200
C        2.12964400      -1.36998200      -0.15109100
H       -2.58368600       1.66838800      -0.72833300
H       -2.74686600       1.24055200       0.96176100
H       -2.70720700      -0.03100000      -0.26352000
H       -0.29977400       1.79300600       0.43646800
H       -0.56243900      -1.16591400      -0.35656800
H        1.87213500       0.65702100       0.35246300
H        1.67579200      -2.31115400      -0.43919200
H        3.20654000      -1.34793600      -0.04212400
