12
Properties=species:S:1:pos:R:3 pbc="F F F"
O       -1.46197400       1.27981100      -0.38483300
C       -1.85410100       0.20555300       0.02307800
O       -1.07869300      -0.86907100       0.30517300
C        0.30771100      -0.87444900       0.18701900
C        1.10504400       0.18640500      -0.00895900
C        2.59422800       0.04797600      -0.09975600
H       -2.93888700      -0.03761300       0.21320400
H        0.69840800      -1.88899900       0.30471400
H        0.68859100       1.18294900      -0.11359200
H        2.90906500      -0.98759800       0.01484500
H        3.08910200       0.64163400       0.67089200
H        2.96175800       0.41080200      -1.06107100
