14
Properties=species:S:1:pos:R:3 pbc="F F F"
C       -0.73406800       1.69004600      -0.65397800
C        0.76610000       1.49163700      -0.46280400
O        1.08035800       0.52594000       0.55140400
C        0.78541700      -0.83053000       0.20750100
C       -0.66016800      -1.20244300       0.54590500
O       -1.25457100      -2.10973100       0.01640100
H       -0.92198300       2.46255600      -1.39708000
H       -1.20894200       1.99556900       0.27586200
H       -1.21799000       0.77613500      -0.99511200
H        1.23729000       2.43296700      -0.14314300
H        1.23880600       1.18877000      -1.41919200
H        1.45671600      -1.46717100       0.80950900
H        1.00875700      -1.02676400      -0.85676600
H       -1.14264000      -0.58400000       1.36373500
