17
Properties=species:S:1:pos:R:3 pbc="F F F"
C        2.52889900      -1.06690500      -0.24776000
C        1.67196800      -0.28771500      -0.61170300
C        0.76174700       0.65463400      -1.18780500
C       -0.46470000       0.98722100      -0.74389000
C       -1.21306200       0.45192900       0.46508200
C       -2.02640000      -0.79819400       0.07800700
C       -0.32488400       0.17574700       1.68349000
H        3.23275300      -1.76170200       0.14042100
H        1.13351800       1.13403900      -2.09627700
H       -1.02107600       1.70884500      -1.34349400
H       -1.93649800       1.23309000       0.75406900
H       -1.36801900      -1.61244700      -0.21550700
H       -2.69354700      -0.58538200      -0.75489000
H       -2.62974300      -1.13638100       0.91839300
H        0.34185300      -0.66371500       1.50798900
H       -0.94140900      -0.06193600       2.54860700
H        0.28075600       1.04528900       1.92816600
