14
Properties=species:S:1:pos:R:3 pbc="F F F"
C       -0.01357200      -1.69917900       1.58476900
C       -0.56849400      -0.91687800       0.65995900
C        0.20719400      -0.16918300      -0.41911100
C       -0.20601900       1.29878500      -0.46006400
C       -1.19602000       1.77997400      -1.21114600
O        1.61392100      -0.28594800      -0.23218700
H       -0.61807700      -2.21818600       2.31885500
H        1.05891900      -1.85421500       1.61857600
H       -1.65099400      -0.78917600       0.63923500
H       -0.02218700      -0.63759300      -1.39698300
H        0.35402700       1.97457000       0.18723100
H       -1.77148900       1.13899900      -1.87045200
H       -1.45878700       2.83102500      -1.19335300
H        1.85868700       0.08104100       0.62794900
