12
Properties=species:S:1:pos:R:3 pbc="F F F"
C       -2.06573600      -0.72710200       0.70119800
C       -0.73678000      -0.62271500       0.57771500
C       -0.02049600       0.32743800      -0.29280200
C       -0.61497300       1.23718700      -1.09342600
C        1.47785500       0.25240300      -0.26346900
O        2.10081100      -0.52555900       0.42023600
H       -2.50632000      -1.45807100       1.36814400
H       -2.74644500      -0.09174900       0.14501300
H       -0.08754900      -1.28142600       1.15388600
H       -1.69273100       1.33549400      -1.15411700
H       -0.01769300       1.90422500      -1.70748800
H        2.00502900       0.99273400      -0.94261800
