21
Properties=species:S:1:pos:R:3 pbc="F F F"
C       -1.57819500       0.89467000      -2.26239400
C       -1.56658000       0.11351500      -0.95361400
C       -0.81606300       0.83026400       0.18105500
C        0.71244700       0.85474600       0.01485100
C        1.47672500      -0.34652300       0.57129000
C        1.28262600      -0.82950700       1.97696600
C        0.86271400      -1.68885800       0.82597800
H       -2.12874800       0.35305000      -3.02887400
H       -0.56914900       1.06252700      -2.63368400
H       -2.05127500       1.86632200      -2.13327200
H       -1.12849000      -0.87427300      -1.12621200
H       -2.60094200      -0.05929500      -0.63623100
H       -1.07605000       0.36267900       1.13629900
H       -1.18041700       1.86151700       0.24104600
H        1.10510300       1.75756000       0.50025600
H        0.95976400       0.96411800      -1.04737700
H        2.51118900      -0.37731000       0.22164900
H        0.49896100      -0.37314400       2.57313400
H        2.15946100      -1.12678700       2.54350300
H       -0.20104600      -1.81827000       0.65955100
H        1.45959400      -2.56853200       0.60541800
