7
Properties=species:S:1:pos:R:3 pbc="F F F"
C       -3.17543500       0.00000000       0.00000000
C       -1.95811800       0.00000000       0.00000000
C       -0.57600200       0.00000000       0.00000000
C        0.64837100       0.00000000       0.00000000
C        2.03724200       0.00000000       0.00000000
N        3.19753200       0.00000000       0.00000000
H       -4.23906600       0.00000000       0.00000000
