18
Properties=species:S:1:pos:R:3 pbc="F F F"
C       -1.35688600       0.51086900      -1.88919300
C       -1.68173000       1.04021500      -0.49850600
C       -1.10723400       0.16616500       0.62950800
C        0.39794300       0.15740300       0.66477000
C        1.14410000      -0.95404400       0.67074000
C        2.63954700      -0.96373600       0.72715400
H       -1.76352000       1.16455200      -2.65849100
H       -1.77694700      -0.48228500      -2.03620800
H       -0.28149400       0.44282000      -2.03709600
H       -2.76859700       1.10615100      -0.37806800
H       -1.29637000       2.06052500      -0.39682600
H       -1.48442000      -0.85751300       0.53619500
H       -1.48417400       0.55114200       1.58776200
H        0.88790900       1.13109800       0.69950800
H        0.65603900      -1.92820400       0.63137100
H        3.04383400       0.04497400       0.77273900
H        3.05989200      -1.46103000      -0.14894900
H        2.99341000      -1.51346800       1.60122100
