12
Properties=species:S:1:pos:R:3 pbc="F F F"
O        0.09266300       1.17795100      -1.64213700
C        0.67691400       0.71487900      -0.43681200
C       -0.39562400       0.09974600       0.44298000
C       -0.66923400      -1.36415200       0.40740500
N        0.01959400      -0.76576800       1.55171400
H        0.75961200       1.61776000      -2.18458800
H        1.17206500       1.56135600       0.08844800
H        1.47548700      -0.02770800      -0.65516900
H       -1.22966700       0.76713500       0.68579500
H       -0.07616400      -1.99422300      -0.25848000
H       -1.67571700      -1.73207300       0.61033200
H        1.02358900      -0.95832000       1.50731800
