19
Properties=species:S:1:pos:R:3 pbc="F F F"
C       -0.52951600       1.03979900      -2.86880100
C       -0.81051400       0.53513600      -1.66638300
C        0.21848800       0.21888300      -0.61761300
C        0.10838900      -1.17835400       0.04269200
C       -0.10838200      -0.51825600       1.42076000
C       -0.00794200       0.87640400       0.76812500
C        0.92742700      -0.83769000       2.49321700
H       -1.31155900       1.25561700      -3.58666600
H        0.49054100       1.25212800      -3.16797600
H       -1.84917600       0.33465800      -1.39967600
H        1.22346800       0.41811200      -1.01445700
H        1.01585900      -1.78147200      -0.03887700
H       -0.73346200      -1.78091900      -0.30728800
H       -1.11292900      -0.71645300       1.82181300
H        0.83229800       1.48382500       1.11310500
H       -0.91726000       1.47790300       0.84285400
H        1.93725100      -0.64977600       2.13339500
H        0.86773400      -1.88312700       2.79172000
H        0.76952800      -0.22602500       3.38007300
