19
Properties=species:S:1:pos:R:3 pbc="F F F"
C       -0.74250800       1.71857400      -0.81234900
C       -1.18445300       0.45958800      -0.12077000
C       -2.23115500       0.43931600       0.71589400
C       -0.39082600      -0.79641500      -0.43515200
C        1.06478200      -0.70361900      -0.01268100
C        2.06184800      -0.77854000      -0.90492600
C        1.32284300      -0.54131800       1.45901600
H       -1.35937800       2.56738400      -0.52820700
H       -0.79592900       1.60258200      -1.89574400
H        0.29544300       1.94675800      -0.56902100
H       -2.79999000       1.33736300       0.92319300
H       -2.54125000      -0.47476400       1.20721600
H       -0.44003100      -0.99173200      -1.51291100
H       -0.85680900      -1.65104600       0.06924900
H        1.86212700      -0.89672200      -1.96290700
H        3.09778300      -0.72383300      -0.59367700
H        0.91455900      -1.38448500       2.01767400
H        0.83376800       0.35587500       1.83874700
H        2.38652000      -0.47290300       1.67218900
