17
Properties=species:S:1:pos:R:3 pbc="F F F"
O       -1.65126400      -0.65196400      -1.20288000
C       -1.67212300      -0.80267600       0.20644100
C       -0.97936300       0.39194100       0.89040100
N        0.49155200       0.32919500       0.91999500
C        1.13608400       0.48529500      -0.39550100
C        2.65323900       0.46203100      -0.25577000
H       -2.08889400      -1.40593700      -1.61826100
H       -1.18049700      -1.75666300       0.49574800
H       -2.72523000      -0.87590100       0.55714000
H       -1.33901600       0.45206400       1.93063900
H       -1.28277000       1.32057700       0.39197300
H        0.79592500      -0.54844500       1.34943200
H        0.81576700       1.44328300      -0.82933200
H        0.81942200      -0.30166000      -1.10693900
H        2.99886800       1.24769300       0.41283900
H        3.13239200       0.60631900      -1.22172000
H        2.99626200      -0.48953300       0.14813300
