16
Properties=species:S:1:pos:R:3 pbc="F F F"
C       -0.92950900      -1.75087500      -0.76740300
O       -1.26752500      -0.42386100      -0.41406900
C       -0.84822100      -0.05222100       0.90498000
C        0.65968200       0.02271600       1.06446600
C        1.48399600       0.76666100       0.31447400
C        1.07558200       1.64199600      -0.82623500
H       -1.30921100      -1.94081000      -1.77647900
H       -1.38369700      -2.48080600      -0.07136500
H        0.16312300      -1.90895400      -0.76041200
H       -1.26418600      -0.77022800       1.64186100
H       -1.31128100       0.92851300       1.10949200
H        1.09361700      -0.56719600       1.87283500
H        2.55219000       0.74368700       0.53604000
H        0.00054600       1.63099900      -0.97730200
H        1.55428100       1.31471000      -1.75076500
H        1.39563600       2.67130700      -0.65305100
