14
Properties=species:S:1:pos:R:3 pbc="F F F"
C       -1.73608100      -0.00751100      -0.56340000
N       -0.27812800      -0.01489100      -0.60208600
C        0.44261100       1.05844000       0.12139300
C        1.37175900       0.01417200       0.75088600
C        0.43380300      -1.05431100       0.17753900
H       -2.11739200       0.86438600      -1.10281000
H       -2.14562900       0.02504000       0.46373100
H       -2.12478200      -0.90676400      -1.04990200
H       -0.18248000       1.59513800       0.85600400
H        0.90975200       1.80918000      -0.53777300
H        1.45614500       0.04278200       1.83999800
H        2.37946000      -0.00123800       0.32826600
H       -0.19541600      -1.54630500       0.93940000
H        0.89468100      -1.84272300      -0.44082000
