16
Properties=species:S:1:pos:R:3 pbc="F F F"
C       -2.41535000       1.16861400       1.24950900
C       -1.40399100       0.98642800       0.40017700
C       -0.63139800      -0.30070400       0.25846200
C        0.85146700      -0.10397600       0.46309400
C        1.83517500      -0.45233700      -0.37728800
C        1.69646700      -1.10314300      -1.71738700
H       -2.94379700       2.11287000       1.30066500
H       -2.74387500       0.37987500       1.91672400
H       -1.09817800       1.80421900      -0.25258900
H       -0.82308100      -0.72496000      -0.73462800
H       -1.00537100      -1.03012600       0.98883700
H        1.12956700       0.36532500       1.40657800
H        2.86161000      -0.25019900      -0.06938700
H        0.65880000      -1.26365200      -1.99814900
H        2.20297100      -2.06981500      -1.72759400
H        2.16714500      -0.49282600      -2.48986300
