19
Properties=species:S:1:pos:R:3 pbc="F F F"
C       -1.48398900      -1.74143400      -0.75306300
C       -0.03362000      -1.37584500      -0.79228900
C        0.54571800      -0.27295800      -0.26861400
C       -0.20311600       0.82064300       0.41445000
C       -1.36242700       1.30863800      -0.06280500
C        0.41925100       1.40563300       1.65714900
C        2.04719500      -0.11922200      -0.33347100
H       -1.59800200      -2.80977600      -0.56756400
H       -1.97290800      -1.53380200      -1.70839600
H       -2.02295300      -1.19750500       0.01942700
H        0.61740200      -2.10795100      -1.27115400
H       -1.79648300       0.94180800      -0.98356600
H       -1.87911700       2.11280000       0.44731900
H        0.67165500       0.62618200       2.37593500
H       -0.25392600       2.11147200       2.13730600
H        1.34404500       1.93288600       1.41821500
H        2.49560000      -0.90287400      -0.93977500
H        2.49161700      -0.17071400       0.66216000
H        2.32899500       0.84475100      -0.75804900
