13
Properties=species:S:1:pos:R:3 pbc="F F F"
C       -1.34407700      -0.51246400       0.68063600
C        0.15496400      -0.52967400       0.74675500
C        0.81878200      -1.19708700       1.70077900
C        0.92412300       0.24581200      -0.31688800
C        0.07858100       0.92662300      -1.29622600
N       -0.56514200       1.47037900      -2.07975300
H       -1.77983500      -1.11209600       1.47574100
H       -1.69338600      -0.89907000      -0.27724400
H       -1.72261200       0.50659500       0.76821600
H        0.28797100      -1.75223200       2.46333400
H        1.90130700      -1.20166800       1.73875500
H        1.59875900      -0.42963000      -0.85942400
H        1.56955000       0.99618500       0.15855800
