14
Properties=species:S:1:pos:R:3 pbc="F F F"
C        1.09009900       1.22708400      -0.23610000
C        0.50515700      -0.15437300      -0.56413400
C       -1.05039400      -0.17936000      -0.52402300
N       -1.63097400       0.09028500       0.79785400
O        1.03971400      -1.13936600       0.32940700
H        2.17642500       1.20142500      -0.27489100
H        0.80163500       1.55146000       0.76328000
H        0.74219400       1.97646200      -0.94436100
H        0.83168900      -0.45163800      -1.57807700
H       -1.44298300       0.55789200      -1.23894700
H       -1.40100700      -1.16444700      -0.85530800
H       -1.31845200       0.98835000       1.15838200
H       -1.37141700      -0.63812900       1.45797100
H        0.81184400      -0.89855100       1.23725900
