17
Properties=species:S:1:pos:R:3 pbc="F F F"
C       -2.44699500      -1.49486800      -0.01792100
C       -1.45761700      -0.50500500       0.58997800
C       -0.88003600       0.44073000      -0.43173000
C        0.39178500       0.85748200      -0.49695400
C        1.50798100       0.46472800       0.43681000
N        2.81343400       0.61851400      -0.21116500
H       -2.87159500      -2.13852200       0.74992900
H       -1.96160400      -2.12909500      -0.75651200
H       -3.26545000      -0.97546800      -0.51250900
H       -0.65779900      -1.04940000       1.10287900
H       -1.97227200       0.07756400       1.36732500
H       -1.58552000       0.82007700      -1.17142900
H        0.66570000       1.55830900      -1.28460700
H        1.35089900      -0.56863300       0.81425400
H        1.48929400       1.11177900       1.33113700
H        2.86247200       0.05663800      -1.05699600
H        3.56113400       0.32875500       0.41358400
