17
Properties=species:S:1:pos:R:3 pbc="F F F"
C       -2.17158800      -0.24834200       0.82502800
C       -0.64268000      -0.20100000       0.75758900
C       -0.14236600      -0.46767500      -0.69849000
C        1.35375600      -0.56533900      -0.78538000
C        2.12288000       0.22964100      -1.53091600
N       -0.15959900       1.08652700       1.28530500
H       -2.54701500      -1.21350500       0.49142500
H       -2.61455100       0.52024800       0.19379400
H       -2.51546200      -0.08217300       1.84308500
H       -0.23636000      -1.00064400       1.40516400
H       -0.50796400       0.31913900      -1.36533100
H       -0.58296200      -1.41062700      -1.04706000
H        1.81890400      -1.34840000      -0.18470400
H        1.69725700       1.01895900      -2.13957100
H        3.19861400       0.10700100      -1.55885000
H       -0.56590600       1.85809000       0.76128300
H        0.85262800       1.14251100       1.19664500
