16
Properties=species:S:1:pos:R:3 pbc="F F F"
C        0.50060600       1.93291500       1.58213600
N       -0.31479400       0.78498000       1.18792400
C       -0.03567700       0.29611000      -0.15678600
C        1.06996300      -0.71700600      -0.33316000
C       -0.35746800      -1.14185100      -0.47991600
N       -0.84841300      -1.52649800      -1.79862100
H        0.22764900       2.24669500       2.59258200
H        0.38093300       2.80323300       0.91148000
H        1.55874500       1.65940800       1.58183700
H       -1.30727300       1.01680300       1.28249800
H       -0.14553600       1.02970600      -0.97615000
H        1.60759400      -1.03507000       0.55360500
H        1.67576200      -0.65078100      -1.23174600
H       -0.77426200      -1.75007600       0.32770200
H       -0.31504900      -1.06714600      -2.53166100
H       -1.83065600      -1.28315900      -1.90890000
