11
Properties=species:S:1:pos:R:3 pbc="F F F"
O       -1.12707000       0.13794400      -1.64694400
C       -1.55322000       0.27654700      -0.53210400
C       -0.71335800       0.76957400       0.65086800
C        0.79625400       0.69655300       0.38213300
C        1.32084100      -0.66282100       0.51705600
N        1.74178800      -1.72570200       0.64359600
H       -2.64145100       0.07676100      -0.28495000
H       -0.97944400       0.20720800       1.55096900
H       -1.00229700       1.80941700       0.84804400
H        1.33789200       1.34639400       1.07969000
H        1.00624300       1.05747100      -0.63109700
