17
Properties=species:S:1:pos:R:3 pbc="F F F"
C        0.11184700      -2.35309100      -0.26063900
C        0.48940400      -1.24389700       0.71500600
C        1.12142400      -0.04496500       0.02136800
C        1.12142300       1.29960400       0.67868200
C        0.27076600       1.06812900      -0.54536900
C       -1.17325000       1.04059500      -0.42619100
C       -2.38149300       1.04313600      -0.36064300
H       -0.32266000      -3.19992800       0.26633600
H        0.98429500      -2.70877300      -0.80595500
H       -0.61551200      -1.99952900      -0.98775000
H        1.18962100      -1.63976800       1.46118600
H       -0.39898500      -0.91818400       1.26350400
H        2.01030900      -0.28288200      -0.56696200
H        1.99819000       1.93083100       0.56638400
H        0.60945300       1.40085900       1.62976100
H        0.62546400       1.52484500      -1.47275500
H       -3.44089700       1.03545900      -0.28703700
