16
Properties=species:S:1:pos:R:3 pbc="F F F"
C       -1.06183000      -1.97366200       1.40287400
C       -1.43822900      -1.32802800       0.07519000
C       -0.89667500       0.09824500      -0.09802500
C        0.63103300       0.16157600      -0.22964900
C        1.14676700       1.59104300      -0.35189200
O        2.00804700       1.93679600      -1.11898000
H       -1.49685400      -2.96735400       1.48134200
H       -1.42317800      -1.38203900       2.24155700
H        0.01661100      -2.07422700       1.50501800
H       -2.52936900      -1.29712900      -0.00938100
H       -1.08247400      -1.95309700      -0.75026900
H       -1.21239200       0.71856700       0.74854700
H       -1.35047400       0.54170500      -0.99062500
H        0.97137100      -0.42767000      -1.08506000
H        1.09273900      -0.28329200       0.66082800
H        0.66324700       2.33512800       0.35888900
