13
Properties=species:S:1:pos:R:3 pbc="F F F"
C       -0.43912800       0.31619100       2.50392200
C       -0.70122100       0.40370500       1.32664500
C       -1.06694800       0.52259800      -0.06974000
C       -0.20842900       1.31981000      -1.01058400
C       -0.25749600      -0.17561800      -1.14886400
C        0.89746800      -0.98007800      -0.80700200
C        1.85488100      -1.67659600      -0.56077400
H       -0.17946300       0.22638100       3.52980100
H       -2.14523500       0.56258000      -0.24463900
H        0.69941500       1.75902700      -0.61316000
H       -0.70928500       1.91312900      -1.77018200
H       -0.83642000      -0.56548800      -1.99013900
H        2.69622300      -2.27570500      -0.31329800
