17
Properties=species:S:1:pos:R:3 pbc="F F F"
C       -1.47021700      -0.87021100      -1.81686400
N       -1.56300600       0.06379200      -0.70009400
C       -1.01516700      -0.44149100       0.56841700
C        0.51437700      -0.43784900       0.60353000
O        0.98666000       0.89996200       0.72181200
C        2.39353700       0.99902900       0.73322700
H       -1.95391100      -0.43553100      -2.69440600
H       -1.94992900      -1.84566000      -1.60985200
H       -0.42429900      -1.06650300      -2.06971500
H       -2.53857700       0.33574600      -0.56276400
H       -1.37653400      -1.47115800       0.78562700
H       -1.39229000       0.20021300       1.37459800
H        0.94040600      -0.91277600      -0.30583600
H        0.87475800      -1.04196000       1.46718300
H        2.66303400       2.05655400       0.81861600
H        2.83734300       0.59012100      -0.19405600
H        2.83258500       0.44784300       1.58691500
