15
Properties=species:S:1:pos:R:3 pbc="F F F"
C        1.81675000       0.87214000       1.94388900
C        0.75168300       0.87207400       1.14217500
C        0.04235800      -0.36989100       0.67035800
C       -0.09022800      -0.42292500      -0.85043400
C       -1.22569300      -1.14830300      -1.48697000
N       -1.17589000       0.31497700      -1.50127200
H        2.28405300       1.79744100       2.25758200
H        2.25069600      -0.05187300       2.30861200
H        0.34387000       1.81946600       0.78940500
H       -0.96207400      -0.40118000       1.11455500
H        0.57186000      -1.25937500       1.03121800
H        0.85915200      -0.38528700      -1.39655200
H       -1.97649200      -1.61608500      -0.84660500
H       -1.09050100      -1.62898500      -2.45695500
H       -1.81855400       0.70246000      -0.80646100
