13
Properties=species:S:1:pos:R:3 pbc="F F F"
C       -0.17728100       0.77555300       1.44769700
C       -0.88378900       0.38966800       0.16587900
O       -2.06065100       0.69758300      -0.04402900
N       -0.22668100      -0.33485200      -0.83133100
C        1.06985100      -0.83800000      -0.92695200
C        2.09342800      -0.74642000      -0.05762900
H       -0.86840000       1.32274900       2.08200300
H        0.68520900       1.41016300       1.24933000
H        0.16765300      -0.10339800       1.99034400
H       -0.82434000      -0.52953000      -1.63206200
H        1.22637300      -1.37611400      -1.86374700
H        2.03887800      -0.23559000       0.89013400
H        3.03335200      -1.20979100      -0.31842800
