16
Properties=species:S:1:pos:R:3 pbc="F F F"
C       -0.26963300      -1.02116500      -2.06061600
C       -0.78867300      -1.15107500      -0.62872200
C       -0.37912200       0.00680000       0.26396800
C       -1.26077600       0.93858300       0.64932600
C        1.07268100       0.02933100       0.70400100
O        1.44477600       1.22418900       1.35915300
H       -0.59085400      -1.87019400      -2.66040800
H        0.81780600      -0.98499100      -2.08738300
H       -0.64591900      -0.11541100      -2.53087400
H       -0.41489200      -2.08841000      -0.19826800
H       -1.87963400      -1.22698400      -0.64945700
H       -2.29597800       0.89670400       0.33320900
H       -0.96772400       1.74959900       1.30539200
H        1.72958100      -0.14670700      -0.17771700
H        1.26522900      -0.80525500       1.39970500
H        1.17731600       1.98329100       0.82483300
