15
Properties=species:S:1:pos:R:3 pbc="F F F"
C       -0.18456900      -0.57813200       1.72807700
C       -0.67454800       0.52114700       0.79220800
C       -0.13494500       0.42500600      -0.65723400
O       -0.57503900      -0.78416800      -1.28046400
C        1.39471700       0.53953000      -0.74324300
H       -0.63149000      -0.46751600       2.71354500
H        0.89651900      -0.54804000       1.84819400
H       -0.45408400      -1.56442000       1.35359700
H       -0.40163600       1.49723200       1.20725700
H       -1.76747800       0.49568300       0.75436300
H       -0.58468200       1.24998800      -1.24209900
H       -0.20655400      -1.53982300      -0.80373300
H        1.88571300      -0.27705100      -0.21668900
H        1.74110500       1.47516200      -0.30885400
H        1.71896700       0.50682100      -1.78070900
