19
Properties=species:S:1:pos:R:3 pbc="F F F"
C       -2.42312700      -1.41615300      -0.07647200
C       -1.80535400      -0.04277900      -0.34456300
C       -1.01388600       0.47917800       0.82429800
C        0.32121600       0.61573500       0.91221500
C        1.34437300       0.24891800      -0.09042000
C        1.27784200      -0.85826300      -0.85280500
C        2.53144100       1.17442700      -0.17053700
H       -3.01987900      -1.74149800      -0.92638000
H       -3.06918300      -1.38955400       0.79875700
H       -1.65210900      -2.16296700       0.10043300
H       -2.61426600       0.66777600      -0.55902600
H       -1.18035300      -0.08847700      -1.24033800
H       -1.61042400       0.81284400       1.67492400
H        0.71673000       1.09115700       1.81183500
H        0.46076900      -1.56178100      -0.76415300
H        2.06610200      -1.09309100      -1.55767700
H        2.21970200       2.18814000      -0.42443400
H        3.24751200       0.84034700      -0.91696200
H        3.04035800       1.23071300       0.79272300
