15
Properties=species:S:1:pos:R:3 pbc="F F F"
C       -1.75452900      -0.87208400      -0.14872700
C       -0.23402700      -0.70991700      -0.31892500
C        0.29747200       0.52246400       0.42879800
C        0.13193900       1.89997400      -0.11966100
N        1.43151500       1.23690900      -0.16430500
O        0.43241000      -1.89185000       0.14350400
H       -2.28811600      -0.01643800      -0.55818100
H       -2.02502800      -0.96288800       0.90282800
H       -2.10359300      -1.76564300      -0.66046700
H        0.00824400      -0.61737300      -1.39121000
H        0.30693200       0.43054600       1.52416000
H        0.01301900       2.73374500       0.57565100
H       -0.35295700       2.04303400      -1.08697200
H        2.05342200       1.60169400       0.56009800
H        0.26306900      -2.01286100       1.08728200
