19
Properties=species:S:1:pos:R:3 pbc="F F F"
C       -2.65050900       0.73582800       0.31518400
C       -1.66581900      -0.10156300       0.64155100
C       -0.68146700      -0.68234200      -0.34259600
C        0.76222700      -0.49847300       0.10049200
C        1.58656500       0.44890000      -0.38358100
C        1.26378000       1.49496200      -1.40506500
C        1.24314500      -1.46667900       1.15040100
H       -3.33634900       1.11520500       1.06292200
H       -2.79826700       1.06649900      -0.70647200
H       -1.54507100      -0.40904700       1.68085300
H       -0.84894400      -0.24773300      -1.33136400
H       -0.87923000      -1.76066100      -0.43396500
H        2.60369900       0.48478900       0.00770700
H        0.28436600       1.35402400      -1.85427300
H        2.00809800       1.49622800      -2.20287900
H        1.28366400       2.48982900      -0.95514200
H        0.62199900      -1.41283800       2.04624500
H        2.27215000      -1.26458100       1.43876600
H        1.18635700      -2.49551400       0.78929200
