17
Properties=species:S:1:pos:R:3 pbc="F F F"
N       -1.68737900       1.30557700      -0.61613900
C       -0.24166700       1.20406600      -0.41362200
C        0.27162900      -0.23839000      -0.62618600
C       -0.28832700      -1.22960700       0.42142500
O        0.15176600      -0.93466000       1.73692600
C        1.80467400      -0.27095500      -0.63651700
H       -1.99614700       2.26953800      -0.52264400
H       -2.19597400       0.73594600       0.05529500
H        0.06404200       1.56518700       0.59458500
H        0.25388600       1.87001800      -1.13366900
H       -0.08755000      -0.57372700      -1.61171900
H       -1.39943700      -1.23549200       0.38422200
H        0.04431800      -2.25247700       0.18630500
H        0.05692400       0.01182600       1.90604900
H        2.20424300       0.01121500       0.33551100
H        2.20689400       0.41555600      -1.37968300
H        2.16846800      -1.27003100      -0.86728200
