15
Properties=species:S:1:pos:R:3 pbc="F F F"
C       -0.67011900      -1.41558100       1.55120500
C        0.54238700      -0.54832600       1.67284700
C        1.00599800       0.34259500       0.77381100
C        0.45594900       0.69177400      -0.54408700
C        1.04886600       1.64820700      -1.29957600
C       -0.71556000       0.02408500      -1.06301600
C       -1.68468800      -0.48209000      -1.58639000
H       -0.83395400      -1.97352900       2.47009700
H       -0.56679800      -2.13518600       0.73802700
H       -1.56538600      -0.82875600       1.34829800
H        1.11044500      -0.65532900       2.59692700
H        1.90904700       0.89379300       1.03638800
H        1.93021000       2.16695400      -0.94181200
H        0.66076700       1.92011700      -2.27225600
H       -2.54133100      -0.95205500      -2.00443000
