17
Properties=species:S:1:pos:R:3 pbc="F F F"
C       -2.39565400      -0.06760300       0.13730100
C       -0.88509200      -0.04550900       0.08947100
C       -0.15748200      -0.53656000       1.11771000
C        1.33390400      -0.62461500       1.30119200
C        2.21523600      -0.07486400       0.19183100
C       -0.34339600       0.52907900      -1.11645600
C       -0.05642200       1.03570300      -2.18156500
H       -2.75320400      -0.51054900       1.06426400
H       -2.80330900      -0.63999100      -0.69649200
H       -2.80196500       0.94129200       0.05962800
H       -0.72203300      -0.93967200       1.96026700
H        1.59020600      -1.68001500       1.47587600
H        1.58658900      -0.11981400       2.24514200
H        2.04591700      -0.59868100      -0.74529900
H        3.26389900      -0.19663600       0.45823600
H        2.03267900       0.98420200       0.02905200
H        0.29465500       1.46607800      -3.08758600
