21
Properties=species:S:1:pos:R:3 pbc="F F F"
C       -2.09574300       0.05030500      -0.39448300
C       -0.55661100       0.02445100      -0.36139800
C       -0.00905700       0.07959400      -1.80357000
C        0.02590600       1.19146800       0.48147700
C        1.39714800       0.70774600       0.97412600
C        1.37257300      -0.83402200       0.90809700
C       -0.01203800      -1.22957300       0.37528800
H       -2.45981500       0.95958200      -0.86926600
H       -2.50990000       0.00783100       0.61125700
H       -2.48812500      -0.79631700      -0.95489100
H       -0.33390200       0.98794800      -2.30782300
H       -0.36136100      -0.77003800      -2.38576900
H        1.07821200       0.06305800      -1.80893000
H       -0.63033000       1.38970400       1.33492000
H        0.09491800       2.12156500      -0.08892000
H        1.60317900       1.06483800       1.98695800
H        2.19629700       1.10361200       0.34047400
H        1.56376900      -1.28248400       1.88701400
H        2.16115900      -1.19996100       0.24378900
H       -0.67614500      -1.48123900       1.20827900
H        0.02897200      -2.10790200      -0.27431100
