21
Properties=species:S:1:pos:R:3 pbc="F F F"
C       -2.82653600      -2.18539700       0.09068900
C       -1.37824600      -1.82407300       0.39589600
C       -0.90091000      -0.59132800      -0.38016600
C        0.56236700      -0.23667700      -0.07587900
C        1.04357300       0.94501100      -0.87559100
C        1.73640300       1.99922200      -0.42357500
C        2.18376500       2.25158800       0.98204500
H       -3.14061600      -3.05259200       0.66795300
H       -2.95712400      -2.41945200      -0.96396800
H       -3.49500000      -1.36164200       0.33296000
H       -0.73210300      -2.67672700       0.15985500
H       -1.26614600      -1.64435300       1.47057300
H       -1.54260200       0.26210200      -0.13914500
H       -1.01757500      -0.76740100      -1.45510300
H        1.19159900      -1.10728400      -0.31144300
H        0.68383800      -0.05639200       0.99650100
H        0.80071700       0.91475000      -1.93854700
H        2.02064600       2.76843600      -1.14230200
H        1.80006600       1.51183900       1.67969500
H        1.85821000       3.23740600       1.31670700
H        3.27358900       2.24123000       1.04575100
