19
Properties=species:S:1:pos:R:3 pbc="F F F"
C       -3.07285900      -0.37715300       0.00679400
C       -1.66493200      -0.07958300      -0.49941600
C       -0.88247700       0.78699900       0.44919400
C        0.45123500       0.79034400       0.63429800
C        1.46805200      -0.03546600      -0.04620000
C        1.37587200      -0.43582300      -1.32897300
C        2.67858700      -0.38036800       0.78353300
H       -3.62212500      -0.98075300      -0.71263100
H       -3.63226500       0.54164200       0.17202900
H       -3.04417900      -0.92170700       0.94797800
H       -1.73865300       0.42016200      -1.47613400
H       -1.12899400      -1.01706000      -0.68288700
H       -1.47646100       1.46395600       1.06458800
H        0.84473700       1.44670900       1.41225200
H        0.54704700      -0.14736800      -1.96095500
H        2.16310400      -1.02687600      -1.78086100
H        2.39619500      -0.95865900       1.66391400
H        3.16908100       0.52470400       1.14326000
H        3.40164700      -0.95844500       0.21406200
