19
Properties=species:S:1:pos:R:3 pbc="F F F"
C        0.99777300      -0.53704500       2.03551200
C        0.48567100       0.85791700       1.86507200
C       -0.38110400       1.27990300       0.92788900
C       -0.99960000       0.48843000      -0.15121700
C       -0.37309600      -0.24934900      -1.09309900
C        1.12223000      -0.36770600      -1.20770100
C       -1.16402500      -0.97811100      -2.14775100
H        0.88744100      -0.85576900       3.07312900
H        2.06239700      -0.60212000       1.79862000
H        0.46445300      -1.24025700       1.40143900
H        0.82888200       1.57898200       2.60734400
H       -0.73113700       2.31305900       0.99416200
H       -2.08627800       0.57766800      -0.21793900
H        1.63182100       0.33812100      -0.55805200
H        1.43917400      -0.18371200      -2.23511600
H        1.46041000      -1.37376700      -0.95083500
H       -2.23488800      -0.86287000      -1.99738700
H       -0.93124800      -2.04426600      -2.14239100
H       -0.91811400      -0.60930700      -3.14519700
