16
Properties=species:S:1:pos:R:3 pbc="F F F"
C       -1.99347500      -1.13571500      -0.57196000
C       -0.52832300      -0.74802100      -0.69852600
C       -0.09461600       0.46378300       0.09985100
C       -0.92997700       1.23880500       0.80436000
C        1.39185400       0.78048000       0.03579600
O        2.18901200      -0.35985400       0.32781600
H       -2.20437800      -2.01524300      -1.17670700
H       -2.64628900      -0.33428400      -0.91107300
H       -2.25408100      -1.36742900       0.45856800
H       -0.28749200      -0.56551800      -1.75428700
H        0.10506000      -1.59394500      -0.40486600
H       -1.99411500       1.04485400       0.84796600
H       -0.56040600       2.09843900       1.35221800
H        1.64030400       1.60917700       0.73000900
H        1.66709700       1.11170700      -0.97943400
H        1.94942400      -0.70491200       1.19795500
