17
Properties=species:S:1:pos:R:3 pbc="F F F"
C        1.02315100      -0.22681100      -1.65523000
C        0.14784200      -1.33662300      -1.18237200
C       -0.92641900      -1.21646500      -0.37689000
C       -1.52400900       0.00901000       0.15810200
C       -0.95042300       1.08864900       0.74227800
C        0.43390900       1.31028400       1.15333600
C        1.35736000       0.37259100       1.41922300
H        1.35911300      -0.40609600      -2.67611200
H        1.91686900      -0.14420400      -1.02727600
H        0.51251200       0.73264900      -1.61380100
H        0.40892500      -2.33475700      -1.53449100
H       -1.50851800      -2.12044300      -0.18447800
H       -2.61402800       0.03329600       0.07178900
H       -1.62130800       1.91197200       0.99444200
H        0.69813500       2.35585700       1.32079100
H        1.13714600      -0.68321500       1.32571400
H        2.34269700       0.65112800       1.77273900
