13
Properties=species:S:1:pos:R:3 pbc="F F F"
C       -0.01181600       2.43134100       1.25661300
C       -0.38405400       1.29588100       1.08122400
C       -0.85663000      -0.07590700       0.88723000
C       -0.39363100      -0.68560300      -0.42803100
C       -1.26393200      -1.13141000      -1.35143500
C        1.02954600      -0.79163000      -0.62532100
C        2.22929300      -0.88514800      -0.76678300
H        0.32789100       3.42703700       1.40298400
H       -1.95259500      -0.09264000       0.93412300
H       -0.49335300      -0.69465700       1.72085500
H       -2.33286500      -1.04900800      -1.19479500
H       -0.92189600      -1.57826600      -2.27628300
H        3.28016900      -0.95761400      -0.90786900
