21
Properties=species:S:1:pos:R:3 pbc="F F F"
C        0.02912400      -1.15474200       2.23837900
C       -0.06182900      -1.43692600       0.73809500
C        0.41007600      -0.26553900      -0.11162500
C       -0.42937400       0.62875700      -0.68392200
C        0.05575900       1.76216500      -1.55656300
C       -1.93038000       0.60105500      -0.52426900
C        1.91348200      -0.17773900      -0.27511700
H       -0.26897200      -2.02913400       2.81436500
H       -0.61884400      -0.32752200       2.52005900
H        1.04596600      -0.89383700       2.52497400
H       -1.08720500      -1.72034900       0.48553000
H        0.56053700      -2.30935500       0.50701900
H        1.12977400       1.74317600      -1.71292500
H       -0.20657300       2.72753100      -1.11949100
H       -0.42554500       1.72186300      -2.53498500
H       -2.26951900      -0.14086600       0.19174700
H       -2.41820900       0.39723300      -1.47984200
H       -2.29269300       1.57502700      -0.19212900
H        2.41424300      -0.82396000       0.44223700
H        2.28805300       0.83396900      -0.12486400
H        2.22784300      -0.49596100      -1.27156500
