19
Properties=species:S:1:pos:R:3 pbc="F F F"
C       -1.13366300       1.89512800       0.46509000
C        0.02543300       1.61972100      -0.13297800
C        0.44397900       0.25818500      -0.66460700
C       -0.32650300      -0.89422900      -0.02293700
C       -1.20950600      -1.61261100      -0.73016200
C       -0.04793200      -1.19455600       1.42423700
C        1.96616000       0.07049600      -0.53849700
H       -1.36921200       2.90260200       0.78666000
H       -1.87665200       1.12751500       0.64637100
H        0.74034200       2.42645400      -0.30287700
H        0.20642800       0.25411300      -1.74394600
H       -1.76004500      -2.42909100      -0.27867400
H       -1.40155600      -1.39830800      -1.77466800
H       -0.75583700      -1.91819700       1.82065900
H       -0.09951000      -0.28903300       2.02768500
H        0.95577800      -1.60448400       1.54741400
H        2.28556900       0.09769300       0.50096400
H        2.49242500       0.86139000      -1.06998900
H        2.27446900      -0.88345500      -0.96047500
