14
Properties=species:S:1:pos:R:3 pbc="F F F"
C       -1.41998200      -0.79475400       0.44517600
C        0.11282600      -0.66596700       0.39947600
C        0.63001000      -0.13626500      -0.95527300
N        0.26602800       1.27559300      -1.13077100
O        0.57070100       0.20467700       1.43459500
H       -1.77762300      -1.47793200      -0.32338800
H       -1.90285500       0.16859000       0.29256500
H       -1.73879400      -1.17423900       1.41270900
H        0.55645000      -1.66398300       0.58823100
H        0.24981200      -0.77084600      -1.78183800
H        1.72498000      -0.21000400      -0.97887900
H       -0.74238800       1.37974000      -1.21813900
H        0.70198900       1.65717500      -1.96642500
H        0.56349200       1.10685200       1.07752300
