13
Properties=species:S:1:pos:R:3 pbc="F F F"
C       -0.03399300       1.09729700       1.57240100
C       -0.85209600       0.36373800       0.52061500
O       -2.08502500       0.36568300       0.52240000
N       -0.18380500      -0.33506600      -0.48008000
C        1.19401500      -0.45021800      -0.64424000
C        1.76419900      -1.14797500      -1.64389300
H       -0.70226200       1.58730300       2.27327500
H        0.60566800       1.85382700       1.11956900
H        0.60419200       0.41063500       2.12718300
H       -0.77574400      -0.80937300      -1.16019900
H        1.79887600       0.06802600       0.09893400
H        1.16449900      -1.66294600      -2.38241300
H        2.83885700      -1.20453200      -1.72429000
