16
Properties=species:S:1:pos:R:3 pbc="F F F"
O       -0.91714900      -0.19906100      -1.54866200
C       -0.80003500      -0.43832000      -0.15732500
C        0.28276800      -1.45851000       0.26572300
C        0.90071500      -0.39693800       1.18856300
C       -0.07331700       0.67211000       0.63855200
C        0.56627000       1.77528700      -0.19453300
H       -1.18752400      -1.00999300      -1.99850100
H       -1.80330000      -0.68438400       0.26509800
H        0.94211700      -1.75293300      -0.55292600
H       -0.07563500      -2.36585300       0.76019400
H        1.96043100      -0.19646000       1.01556600
H        0.76557100      -0.60968900       2.25203400
H       -0.70266600       1.12373900       1.42070300
H        1.18016600       1.35639000      -0.98792700
H        1.19684400       2.41204600       0.42529200
H       -0.19722300       2.39784900      -0.65611600
