12
Properties=species:S:1:pos:R:3 pbc="F F F"
C        0.49879600       2.16106300      -0.03525700
C        0.63302900       0.83178100      -0.06330800
C       -0.49367200      -0.12340400       0.08384100
C       -0.47405600      -1.41930400      -0.66902500
N       -0.24748600      -1.40597300       0.76742200
H        1.35460500       2.81467300      -0.14602900
H       -0.47024200       2.62751100       0.09990900
H        1.62272600       0.39342000      -0.19932000
H       -1.46983800       0.32136800       0.30324100
H        0.38059100      -1.63966900      -1.31242800
H       -1.41788400      -1.86110500      -0.99244700
H        0.74786000      -1.51520300       0.97761400
