17
Properties=species:S:1:pos:R:3 pbc="F F F"
C        0.00154900       1.47668600       1.85958800
C       -0.35966500       0.40073200       0.83392000
C        0.13775400       0.76260200      -0.58791500
C       -0.33617600      -0.21473800      -1.67230000
N        0.29722900      -1.53436200      -1.53333700
O        0.19595900      -0.83963500       1.25905200
H       -0.46089100       2.42952300       1.60767200
H        1.07849100       1.62335300       1.90730400
H       -0.33821200       1.18314000       2.84962500
H       -1.47493300       0.30432100       0.79396100
H        1.23141400       0.81023900      -0.59218200
H       -0.21839600       1.76638300      -0.84333000
H       -0.13454400       0.22361500      -2.67123500
H       -1.42568000      -0.34648600      -1.60704400
H        1.30550700      -1.45772300      -1.65042600
H       -0.06058400      -2.17707900      -2.23621300
H        0.18878000      -1.45336300       0.50304900
