21
Properties=species:S:1:pos:R:3 pbc="F F F"
C       -0.38637600      -0.30881700      -1.85779700
C       -0.85449100      -0.34799200      -0.39955600
C       -0.34403600      -1.60751400       0.33362000
C        1.00500000      -1.22149300       0.96965400
C        1.10003800       0.31428200       0.91071900
C       -0.29269500       0.81036800       0.47171200
C       -0.28162500       2.19143600      -0.18074100
H       -0.74096600      -1.18644100      -2.39585700
H        0.69921000      -0.29360700      -1.92402700
H       -0.76813800       0.57125800      -2.37137300
H       -1.95548500      -0.32348900      -0.39577200
H       -0.25099900      -2.46565900      -0.33734300
H       -1.05693400      -1.89439000       1.11329200
H        1.83828900      -1.68161200       0.43113100
H        1.06821500      -1.58479400       1.99946600
H        1.85689900       0.62114100       0.18220300
H        1.39927200       0.74603400       1.86993500
H       -0.92832000       0.86706500       1.37080700
H        0.38660000       2.22414200      -1.03900800
H        0.05538200       2.94579800       0.52832700
H       -1.27790800       2.47292900      -0.51744700
