21
Properties=species:S:1:pos:R:3 pbc="F F F"
C       -0.80161900      -2.96427700      -0.03414500
C       -1.02866300      -1.46514400      -0.18326100
C       -0.11033900      -0.63413000       0.72406500
C       -0.36625600       0.86248000       0.60363600
C        0.68976200       1.85410700       1.00135500
C        0.29238400       1.72274700      -0.44174300
C        1.26316900       1.16870500      -1.46248200
H       -1.47151300      -3.52503000      -0.68289600
H       -0.97832400      -3.28783800       0.98995200
H        0.22019400      -3.23394500      -0.29439600
H       -2.07391400      -1.23026200       0.04542600
H       -0.87112600      -1.17419100      -1.22686700
H        0.93576500      -0.85624400       0.49135300
H       -0.26205100      -0.94285500       1.76620100
H       -1.39056300       1.14987400       0.85282500
H        1.66034300       1.46447200       1.29131600
H        0.38435300       2.74545000       1.54137800
H       -0.32887800       2.53368800      -0.82815400
H        1.90525000       0.40557900      -1.02938200
H        1.90378000       1.95891700      -1.85390800
H        0.73605600       0.72545600      -2.30739700
