17
Properties=species:S:1:pos:R:3 pbc="F F F"
C       -2.45903800       1.25447000      -0.25909600
C       -0.97660600       0.93486300      -0.13028600
N       -0.67935700      -0.40136900      -0.66988700
C        0.75111500      -0.73855400      -0.64920800
C        1.27714400      -0.89009300       0.75522100
C        2.49118900      -0.50472900       1.14918800
H       -2.67933000       2.23797000       0.15026300
H       -3.06463100       0.52357200       0.27259600
H       -2.77199600       1.24792900      -1.30232700
H       -0.67577500       0.96428600       0.92713100
H       -0.38057200       1.72118800      -0.64184700
H       -1.03376500      -0.46841400      -1.62716000
H        1.36567500       0.00181700      -1.20485500
H        0.87244100      -1.69851300      -1.17961100
H        0.60980900      -1.37541400       1.46757200
H        3.17864200      -0.01569900       0.46771400
H        2.83216700      -0.66487700       2.16481700
