16
Properties=species:S:1:pos:R:3 pbc="F F F"
N       -0.33150300       0.00970200       1.89666600
C       -0.98301300      -0.47827800       0.67400600
C       -0.45004700       0.20682600      -0.56837200
C       -1.28193800       0.64045600      -1.52552100
C        1.04981800       0.39922600      -0.68508600
N        1.80367200      -0.76201600      -0.20760600
H       -0.71799900      -0.45591300       2.71400400
H       -0.47251900       1.01144000       2.00094900
H       -2.08520000      -0.36196900       0.71627800
H       -0.79216700      -1.56094200       0.59442200
H       -2.35666300       0.53998600      -1.42645200
H       -0.90757800       1.09986100      -2.43275200
H        1.32407100       1.31955400      -0.11995100
H        1.31988800       0.59817500      -1.73189500
H        1.57116700      -0.94805200       0.76620400
H        2.80289100      -0.58532400      -0.27440100
