16
Properties=species:S:1:pos:R:3 pbc="F F F"
C       -1.80967400      -0.27263600      -0.18962000
C       -0.30644300      -0.16899700      -0.20152600
C        0.38977300      -0.46480500      -1.31652000
C        1.87955000      -0.43257300      -1.47166600
C        0.35385600       0.23673600       1.10741000
O       -0.52150100       0.95897300       1.95786400
H       -2.18428900      -0.69628700      -1.11857300
H       -2.27184700       0.70781100      -0.05650600
H       -2.14827000      -0.89350800       0.63950800
H       -0.16447800      -0.77900600      -2.20083600
H        2.36743000       0.15182500      -0.69436600
H        2.15471900      -0.01103600      -2.43806100
H        2.29796700      -1.44126900      -1.43607400
H        1.27173200       0.83321300       0.91756900
H        0.67294100      -0.66032000       1.66580300
H       -0.86626300       1.73043800       1.49014500
