15
Properties=species:S:1:pos:R:3 pbc="F F F"
C       -0.89940600       2.05154000       1.22402500
N       -1.10303200       0.60640900       1.30222300
C       -0.65119100      -0.13885600       0.11751700
C        0.87871800      -0.23199700       0.04288600
C        1.36505800      -1.10667200      -1.10249500
O        0.64674600      -1.69121400      -1.87289000
H       -1.32397200       2.52479300       2.11166400
H       -1.36922600       2.50738700       0.33417900
H        0.16770500       2.28823600       1.19140400
H       -2.09405200       0.41306600       1.46223100
H       -1.03179100       0.30816300      -0.82249200
H       -1.06813100      -1.15184900       0.17636100
H        1.28441900      -0.63111100       0.98044700
H        1.32684100       0.76316000      -0.06748800
H        2.49639100      -1.18108900      -1.19034000
