19
Properties=species:S:1:pos:R:3 pbc="F F F"
C       -1.45169900      -0.00546400      -1.97732700
C       -0.87038100      -0.00324000      -0.56389100
C        0.01045700       1.23547700      -0.25844900
C        1.04496100       0.75415900       0.74724500
C        1.04999300      -0.74658000       0.74793800
C        0.01867200      -1.23582400      -0.25728200
C        0.53940200       0.00263300       1.94465900
H       -2.06425000       0.87815800      -2.14801000
H       -2.07796200      -0.88097100      -2.13988700
H       -0.66402500      -0.01505300      -2.72876700
H       -1.71206100      -0.00554600       0.14647500
H       -0.58952400       2.07461000       0.11138500
H        0.51378400       1.58569200      -1.16697600
H        1.97217500       1.31858200       0.84868500
H        1.98103500      -1.30458400       0.84985100
H       -0.57537700      -2.07882200       0.11330500
H        0.52446300      -1.58333300      -1.16550600
H        1.16914000       0.00518700       2.82908400
H       -0.52582600      -0.00088700       2.15300100
