14
Properties=species:S:1:pos:R:3 pbc="F F F"
C       -1.76840500       0.17130400      -0.74583700
C       -0.40438100       0.67229000      -0.29896400
O        0.03307400       1.75488300      -0.64410600
C        0.42475100      -0.23403900       0.64403900
O       -0.25013500      -1.48279100       0.80306800
C        1.85369100      -0.44068400       0.12680700
H       -2.26319000       0.90469900      -1.37644300
H       -2.39288600      -0.03998200       0.12052500
H       -1.65996700      -0.76207100      -1.29589700
H        0.47332700       0.27602300       1.63505700
H        0.31087000      -2.09501800       1.29829400
H        1.85117100      -1.00149000      -0.80531500
H        2.45376200      -0.99214300       0.85024000
H        2.32946100       0.52001900      -0.05442500
