14
Properties=species:S:1:pos:R:3 pbc="F F F"
C       -2.66582700       0.30793800      -0.40379400
C       -1.38324900      -0.08184700      -0.31620700
O       -0.69954700      -0.05474600       0.85526200
C        0.66598600      -0.48066100       0.80857100
C        1.50365600       0.41184800      -0.07183700
C        2.52570900      -0.01558200      -0.81315800
H       -3.18088400       0.26909200      -1.35160000
H       -3.20169200       0.66412700       0.46448800
H       -0.82425500      -0.44613100      -1.19001500
H        0.72620400      -1.53617200       0.48076900
H        1.03338700      -0.44111100       1.84844600
H        1.24683300       1.47057200      -0.06229800
H        2.80394200      -1.06350000      -0.84489900
H        3.11518400       0.67091800      -1.40843900
