15
Properties=species:S:1:pos:R:3 pbc="F F F"
C       -1.02125900      -0.48094500      -1.49205300
C       -1.30633200      -1.02302900      -0.09805400
N       -0.68152300      -0.22788400       0.97393000
C        0.78288500      -0.28928500       1.01698200
C        1.47193400       0.72265000       0.09632200
O        0.95364100       1.69455700      -0.38554900
H       -1.60313600      -1.02402200      -2.23433600
H        0.03039400      -0.58737300      -1.75111800
H       -1.27585800       0.57330800      -1.55952900
H       -0.98768900      -2.08724300      -0.04541700
H       -2.39017700      -1.01602000       0.08367100
H       -1.05780600      -0.53667300       1.87275300
H        1.17587500      -1.30539500       0.79820700
H        1.10886800      -0.05710800       2.04206800
H        2.57769800       0.50291100      -0.07860500
