21
Properties=species:S:1:pos:R:3 pbc="F F F"
C       -3.01926200      -0.01591000      -0.84439200
C       -1.51015700       0.19108000      -0.87821100
C       -0.74120600      -0.99848200      -0.28974400
C        0.77968300      -0.81199800      -0.31898800
C        1.35732000       0.23782500       0.61092300
C        0.70009800       0.76462900       1.65329500
C        2.77833500       0.63553600       0.30841700
H       -3.53756500       0.83386600      -1.28357200
H       -3.37567600      -0.13396500       0.17707000
H       -3.30594700      -0.90685400      -1.40007000
H       -1.25332400       1.10236000      -0.33004300
H       -1.18736900       0.35356300      -1.91230200
H       -0.99029000      -1.90075700      -0.85930400
H       -1.07733800      -1.18634700       0.73484600
H        1.09629400      -0.58132500      -1.34389200
H        1.25963600      -1.77185700      -0.08090200
H       -0.31760200       0.48400900       1.89029300
H        1.17573800       1.49511900       2.29579600
H        3.43570500      -0.23475100       0.32396800
H        3.15266800       1.35858800       1.02836500
H        2.85619700       1.07227000      -0.68805400
