17
Properties=species:S:1:pos:R:3 pbc="F F F"
C       -0.57838700       0.16240700       3.15557000
C       -1.63175100       0.11357700       2.05822200
C       -1.10635600       0.03662600       0.65142600
C        0.19178800       0.01794600       0.29586000
C        0.64374100      -0.05638600      -1.06160500
C        1.09374300      -0.11685200      -2.18832700
C        1.59267700      -0.19019000      -3.55414000
H       -1.05339200       0.21115300       4.13308900
H        0.06118200       1.03647400       3.05176500
H        0.05446400      -0.72246400       3.13577100
H       -2.28359000       0.99484900       2.14079200
H       -2.29610800      -0.74486800       2.23089600
H       -1.86678400      -0.00648800      -0.12778900
H        0.97554800       0.06008800       1.05402600
H        1.42883400      -1.18450600      -3.97545000
H        2.66348100       0.01951000      -3.59083900
H        1.08363200       0.53348400      -4.19430200
