21
Properties=species:S:1:pos:R:3 pbc="F F F"
C        0.79203900      -1.65740400       1.89064300
C       -0.20347300      -0.58903700       1.44767100
C       -0.02713000      -0.14818700      -0.01333500
C       -0.38776600      -1.21322600      -1.03964100
C        1.11404700       0.78882800      -0.32030600
C       -0.29870000       1.30772500      -0.32094700
C       -0.95614000       1.77087300      -1.60444200
H        0.64659000      -1.90665300       2.93988500
H        1.81606800      -1.31103000       1.76638500
H        0.67768200      -2.57158600       1.31203700
H       -0.10058700       0.28438500       2.10035700
H       -1.22368400      -0.96387800       1.59311900
H       -0.16938500      -0.88250700      -2.05189300
H       -1.44743500      -1.46397600      -0.98790700
H        0.17357700      -2.13019200      -0.86310400
H        1.61048300       0.68601800      -1.28002000
H        1.76590600       1.08980100       0.49448500
H       -0.56351200       1.91900600       0.54473300
H       -0.58477400       1.22373100      -2.46739900
H       -0.76054400       2.82934800      -1.77528600
H       -2.03765000       1.64009600      -1.56326300
