16
Properties=species:S:1:pos:R:3 pbc="F F F"
C       -1.74741800       1.07053800       0.00315200
C       -0.22617400       0.99121600      -0.06874100
N        0.30142500      -0.33847300       0.30837800
C       -0.08794400      -1.40806900      -0.61644900
C        1.75200500      -0.30836900       0.52267300
H       -2.07873800       2.09495700      -0.15437300
H       -2.11135700       0.74526900       0.97540100
H       -2.22199200       0.45093500      -0.75500700
H        0.20431000       1.72823300       0.62527400
H        0.11243800       1.28950400      -1.08469100
H       -1.17610400      -1.48979900      -0.66853000
H        0.30857100      -2.36237800      -0.25929500
H        0.29005100      -1.24979000      -1.64373300
H        2.00313900       0.44217500       1.27734100
H        2.32270400      -0.06779400      -0.39384500
H        2.09419300      -1.28389700       0.87899600
