19
Properties=species:S:1:pos:R:3 pbc="F F F"
C        1.13739500       2.75244600      -0.75731900
C        0.36951900       1.50091400      -0.46884400
C        0.90417300       0.27415400      -0.48390400
C        0.15884300      -1.02016900      -0.19107400
C       -1.34386800      -0.83476600      -0.18053300
C       -2.17392400      -1.13019500       0.81980000
C        0.71430000      -1.68386100       1.07888900
H        1.09825300       3.43692300       0.09163600
H        0.71005800       3.28280800      -1.61015100
H        2.18154200       2.54079300      -0.97616500
H       -0.68722400       1.62711700      -0.23542500
H        1.96668500       0.16020800      -0.70367300
H        0.38131400      -1.70424600      -1.03450100
H       -1.76106800      -0.43573900      -1.10672400
H       -1.82090700      -1.52666300       1.76397300
H       -3.24170400      -0.97703200       0.71938600
H        0.53760000      -1.06626100       1.95638000
H        1.78788900      -1.83595200       0.98716100
H        0.24891900      -2.65309200       1.24601600
