23
Properties=species:S:1:pos:R:3 pbc="F F F"
C       -0.96356000       2.79043400       0.71257000
C       -1.36719900       1.81574600      -0.38758400
C       -0.88966700       0.37487300      -0.15223400
C        0.63350400       0.21851600      -0.24154800
C        1.15561100      -1.23012500      -0.08654600
C        0.81113500      -1.83322800       1.28142000
C        0.68770000      -2.14448700      -1.22624600
H       -1.36051600       3.78337400       0.51075900
H        0.11812100       2.87492700       0.79116100
H       -1.34356800       2.46755800       1.67988300
H       -0.98416800       2.17461400      -1.34905400
H       -2.45937300       1.81265500      -0.47512700
H       -1.36581500      -0.27394900      -0.89505100
H       -1.24101800       0.03316800       0.82672100
H        1.10588200       0.84043100       0.52634600
H        0.97692100       0.61033600      -1.20583700
H        2.25524700      -1.16896500      -0.14910800
H       -0.26069600      -1.98200400       1.39228500
H        1.14603800      -1.18458600       2.08828500
H        1.29311800      -2.80084400       1.40574800
H       -0.38968100      -2.29315600      -1.20167900
H        1.15807200      -3.12273100      -1.14953600
H        0.94629600      -1.72120400      -2.19478900
