16
Properties=species:S:1:pos:R:3 pbc="F F F"
C       -1.36916500       1.13093600      -0.96913600
N        0.04337400       0.87711900      -0.75425100
C        0.65455200      -0.07523900       0.06396100
N        0.12047400      -0.97596900       0.83840400
C       -1.31644100      -1.15859700       0.99571000
C        2.17297300      -0.01798500       0.01376700
H       -1.45913800       1.95493800      -1.67910100
H       -1.89043400       1.42948800      -0.05116200
H       -1.89406000       0.26846000      -1.39812700
H        0.67349700       1.47821900      -1.27266100
H       -1.49975800      -1.97778500       1.70108300
H       -1.81530600      -1.42998200       0.05533400
H       -1.81551300      -0.26898700       1.40354400
H        2.53518700       0.75965400      -0.65558900
H        2.58318800      -0.96886400      -0.32203200
H        2.58388600       0.17211900       1.00383000
