14
Properties=species:S:1:pos:R:3 pbc="F F F"
C       -2.37610900       0.79063100      -0.32484500
O       -0.96644500       0.73196200      -0.38852100
C       -0.46463500      -0.57445300      -0.62166000
C        1.06765400      -0.53501000      -0.64416700
C        1.65740200      -0.32138400       0.67740500
C        2.15663700      -0.16524400       1.76616300
H       -2.66605400       1.82752000      -0.13190000
H       -2.77070000       0.14935900       0.48435200
H       -2.83748900       0.45934000      -1.27391100
H       -0.84322300      -0.96036500      -1.59532800
H       -0.83215200      -1.27486400       0.15793500
H        1.40266300       0.26076900      -1.32093100
H        1.45012900      -1.47943300      -1.05512000
H        2.58270100      -0.00525900       2.72569700
