19
Properties=species:S:1:pos:R:3 pbc="F F F"
C       -1.99764600      -0.82737400      -1.63752300
C       -2.02084400       0.61628000      -1.15252200
C       -0.99481500       0.89608600      -0.04198000
C        0.42714800       0.75867800      -0.51064600
C        1.44612200       0.17496900       0.15253700
C        1.36854600      -0.46939200       1.45849300
C        2.42974000      -1.00534300       2.08165000
H       -2.73080000      -0.98278200      -2.42660200
H       -2.22565800      -1.51552100      -0.82603700
H       -1.01778200      -1.09019300      -2.03011400
H       -3.02178000       0.86024500      -0.78059200
H       -1.83166700       1.28833200      -1.99659400
H       -1.18768100       0.24226900       0.81354200
H       -1.14948600       1.92449200       0.31687300
H        0.64131800       1.20388000      -1.48323600
H        2.42985100       0.17496600      -0.31730300
H        0.39380000      -0.51071600       1.94372700
H        3.41716400      -0.98129400       1.63488000
H        2.33321400      -1.47709900       3.05140400
