21
Properties=species:S:1:pos:R:3 pbc="F F F"
C        0.56102400       2.22279000       1.53411900
C       -0.28809000       1.04698100       2.00029000
C        0.00871100      -0.26432600       1.25662500
C       -0.36197200      -0.22496100      -0.22123800
C        0.66132200       0.13005200      -1.26201800
C        0.15574000      -1.28063600      -1.15895500
C       -0.73394500      -1.85363400      -2.24156600
H        0.32117300       3.11984000       2.10170100
H        0.39195100       2.43568400       0.48124800
H        1.62120900       2.01629400       1.66614900
H       -1.34841500       1.29635700       1.88356000
H       -0.12591100       0.88926800       3.07235700
H       -0.54938500      -1.07279500       1.74672600
H        1.06936900      -0.51545400       1.36183900
H       -1.37502000       0.13025700      -0.42002700
H        1.67654000       0.32827000      -0.93263000
H        0.33836600       0.72588700      -2.11009700
H        0.85512800      -1.99935100      -0.72796300
H       -1.41820000      -1.09996000      -2.62519300
H       -1.32869100      -2.68443500      -1.86204600
H       -0.14485800      -2.22745200      -3.07916500
