17
Properties=species:S:1:pos:R:3 pbc="F F F"
C       -1.51213600       1.06198400      -1.10350400
N       -1.72307200      -0.34289500      -0.75491000
C       -1.06491200      -0.77191000       0.49257700
C        0.46903000      -0.86503800       0.42172200
O        1.05050600       0.43130600       0.53311000
C        2.46184400       0.41452000       0.50269500
H       -2.08115600       1.29976900      -2.00700500
H       -0.45623500       1.31406700      -1.29002100
H       -1.87163200       1.70289200      -0.29498100
H       -1.42227300      -0.94038200      -1.52901100
H       -1.45986400      -1.76527200       0.76201600
H       -1.35475000      -0.08422800       1.29643400
H        0.79184300      -1.34710500      -0.52760600
H        0.84897400      -1.51300800       1.24334500
H        2.82033900       1.44438200       0.59542900
H        2.84184800      -0.01310300      -0.44390200
H        2.87739500      -0.18553400       1.33384500
