14
Properties=species:S:1:pos:R:3 pbc="F F F"
O       -0.59486000       1.01768100       2.09229000
C       -1.56310400       0.85590700       1.07929700
C       -1.00248300       0.11351700      -0.10035100
C        0.24644200      -0.36286000      -0.16527600
C        0.79976200      -1.12395900      -1.34221500
O        2.11223600      -0.68698800      -1.67101500
H       -0.97962800       1.48238700       2.84568800
H       -1.94846900       1.84984500       0.75152800
H       -2.45239500       0.31421900       1.47842600
H       -1.68706300      -0.03314800      -0.93798400
H        0.91207800      -0.20407200       0.68154600
H        0.12769200      -1.02770500      -2.22234000
H        0.86874100      -2.20121900      -1.10960900
H        2.13633700       0.27852000      -1.68618900
