17
Properties=species:S:1:pos:R:3 pbc="F F F"
C       -0.52931400       0.16175400      -1.89534600
C       -0.88572300       0.05622200      -0.39942800
C       -0.34178800      -1.23519000       0.25032200
C        0.89883900      -0.81569100       1.05720900
C        1.02909400       0.70088900       0.86892800
N       -0.28610800       1.14764000       0.39909900
H       -0.98001300      -0.65045500      -2.46264700
H        0.54731000       0.11902900      -2.04621500
H       -0.88911200       1.10085500      -2.31293500
H       -1.99039100       0.10006900      -0.31115900
H       -0.10202400      -1.99179700      -0.50195000
H       -1.09426700      -1.68079900       0.90768800
H        1.79930900      -1.33711200       0.72007300
H        0.77411900      -1.06964500       2.11413700
H        1.83063800       0.93296600       0.13713700
H        1.30783900       1.21615900       1.80275600
H       -0.22729900       2.01934500      -0.13069200
