18
Properties=species:S:1:pos:R:3 pbc="F F F"
N       -1.84205700      -0.31944800      -0.14895400
C       -0.78049100      -1.34691700      -0.09338700
C        0.44566700      -0.68067600       0.57912600
C        0.18814900       0.83593400       0.51312800
C       -1.17967100       1.00148200      -0.19493000
C        1.46082400       1.01247600      -0.34159000
C        1.71798000      -0.49938900      -0.27479000
H       -2.40705600      -0.37881400       0.70184700
H       -0.52911200      -1.68724400      -1.11187700
H       -1.14476100      -2.22318300       0.45713300
H        0.63555600      -1.09028100       1.58116800
H        0.21903500       1.36805500       1.47433700
H       -1.03998800       1.31954900      -1.24163200
H       -1.82051300       1.75141100       0.28501700
H        2.23846900       1.62175200       0.12701200
H        1.28533900       1.40368400      -1.34813300
H        2.64573300      -0.77507300       0.23390700
H        1.69694500      -1.01117900      -1.24143900
