12
Properties=species:S:1:pos:R:3 pbc="F F F"
C       -0.74627300      -1.61570700       0.92443700
C       -1.14678200      -0.44180500       0.41915600
C       -0.28782200       0.56489000      -0.22717100
C       -0.82164400       1.71407600      -0.69828900
C        1.19241700       0.36612700      -0.39023800
O        1.82668000      -0.59533200      -0.02657800
H       -1.46539300      -2.28700700       1.37987600
H        0.29025100      -1.92771300       0.89363200
H       -2.20325000      -0.17329400       0.47383600
H       -1.88185100       1.92536000      -0.61496200
H       -0.19809200       2.46336000      -1.17612900
H        1.70552300       1.23646700      -0.91099900
