15
Properties=species:S:1:pos:R:3 pbc="F F F"
O       -0.72913700      -0.15644800      -1.84554200
C       -0.54580700      -0.38093100      -0.45650700
C        0.55859600      -1.39143100      -0.06153100
C        1.15596800      -0.34340700       0.89083500
C        0.23895400       0.73751000       0.28111800
N       -0.47362400       1.59188000       1.23542800
H       -1.03955100      -0.96631300      -2.27152900
H       -1.52368800      -0.61604700       0.02317600
H        1.22189400      -1.63623600      -0.89319300
H        0.22552500      -2.32570000       0.39920600
H        2.23193100      -0.17525600       0.80137000
H        0.92988600      -0.54794700       1.93961300
H        0.77833100       1.37757600      -0.43160800
H       -1.02943100       1.03378000       1.87948500
H       -1.09270600       2.23412700       0.74633200
