17
Properties=species:S:1:pos:R:3 pbc="F F F"
O       -2.81606000       0.72243600       0.20747400
C       -1.40808000       0.85550700       0.10510400
C       -0.75242200      -0.44014100       0.58146900
N        0.71629600      -0.34852200       0.60016600
C        1.34531800      -0.36538100      -0.73000600
C        2.85903000      -0.46542800      -0.60810200
H       -3.24570600       1.53707100      -0.08239800
H       -1.06109300       1.71476800       0.71641600
H       -1.12654700       1.08197200      -0.94541400
H       -1.10409200      -1.28134200      -0.05050100
H       -1.08885400      -0.65399900       1.60401300
H        1.09541200      -1.11861800       1.15644300
H        1.07791200       0.55486700      -1.27212400
H        0.96475700      -1.20664100      -1.34870600
H        3.26203100       0.37201600      -0.04266000
H        3.32660400      -0.46578800      -1.59022200
H        3.15091000      -1.38148000      -0.09658700
