17
Properties=species:S:1:pos:R:3 pbc="F F F"
C       -1.71012800       1.05480600      -1.74193800
C       -2.04316700       1.20644800      -0.26373700
C       -1.45364900       0.08177800       0.60602200
C        0.04796600       0.08268800       0.63663800
C        0.80427800      -0.99967400       0.37639600
C        2.23483800      -1.00088900       0.42798400
C        3.44624500      -1.05231000       0.45876200
H       -2.15089500       1.86277000      -2.32216900
H       -2.09125800       0.11365600      -2.13311900
H       -0.63458000       1.07069300      -1.90270200
H       -3.13047700       1.21967000      -0.13345900
H       -1.67544500       2.17262700       0.09774200
H       -1.82087800      -0.88993200       0.25972300
H       -1.82897700       0.20896000       1.63148500
H        0.53131500       1.02325900       0.89844200
H        0.33514600      -1.94832900       0.10841700
H        4.50775500      -1.07046700       0.49487100
