13
Properties=species:S:1:pos:R:3 pbc="F F F"
C        0.91204100       1.67655200       0.43492600
C        0.36071700       0.41998900      -0.23656600
C       -1.12712100       0.41994700      -0.26163400
N       -2.27678100       0.43558400      -0.30325300
O        0.85854500      -0.72494100       0.45878100
C        0.51016800      -1.96601900      -0.13540300
H        1.99909500       1.67125900       0.40260300
H        0.60566800       1.72357300       1.47705000
H        0.55618600       2.57261600      -0.06859500
H        0.70140000       0.37953300      -1.30099400
H        0.98843300      -2.75815600       0.44636900
H        0.86441400      -2.01954000      -1.17985000
H       -0.58091800      -2.12165700      -0.13200200
