12
Properties=species:S:1:pos:R:3 pbc="F F F"
C       -1.73783300      -0.64274000       0.66144800
N       -0.28611600      -0.59931500       0.61725400
C        0.37406700       0.24599300      -0.25310600
O       -0.24423500       0.99018200      -1.01907300
C        1.90033700       0.20249100      -0.20869700
H       -2.05419500      -1.36957800       1.40939200
H       -2.15520000      -0.93182100      -0.31021400
H       -2.15565300       0.33668200       0.92230000
H        0.23754000      -1.20422700       1.23968700
H        2.27376900      -0.50959600       0.52431200
H        2.29568500       1.18669200       0.03398000
H        2.29532700      -0.06886500      -1.18552700
