9
Properties=species:S:1:pos:R:3 pbc="F F F"
C       -1.20647700      -0.13646600       0.89877900
C        0.29546800      -0.12705200       0.83653100
N        0.98763900       0.03766600      -0.24811100
O        0.20610500       0.20906600      -1.37672200
H       -1.56084500      -0.29077300       1.91490100
H       -1.61164800      -0.92593100       0.26522200
H       -1.61161000       0.80550800       0.52815600
H        0.86890900      -0.26705800       1.75845400
H        0.81892900       0.32317100      -2.12804100
