19
Properties=species:S:1:pos:R:3 pbc="F F F"
C        0.34735300      -2.02335200       1.76314200
C        0.20955000      -0.51921200       1.56133200
C        0.49823100      -0.07057100       0.11699900
C        0.48487400       1.47374600      -0.05061800
C       -0.30760800       1.70848500      -1.30485100
C       -0.85011700       0.58206800      -1.77741100
C       -0.51941900      -0.61019700      -0.92549300
H        0.14790300      -2.29469600       2.79790700
H        1.35208000      -2.36096700       1.51592900
H       -0.35102400      -2.57163300       1.13396900
H        0.89797700      -0.00189600       2.23929800
H       -0.79910500      -0.20313200       1.84888900
H        1.49962700      -0.43940900      -0.15478800
H        1.49848300       1.88810600      -0.11862700
H        0.01371300       1.97345300       0.80739100
H       -0.42916900       2.69375300      -1.74618000
H       -1.47906100       0.51519900      -2.66062300
H       -0.10441400      -1.43626000      -1.51606500
H       -1.42419400      -1.00831900      -0.44569000
