14
Properties=species:S:1:pos:R:3 pbc="F F F"
N       -2.54630900      -0.33310100       0.31912400
N       -1.17071000      -0.40864800       0.07128700
C       -0.49529800       0.69423800       0.15099500
C        0.98687200       0.71692900      -0.02909100
C        1.83556000      -0.40526700       0.50982000
C        1.65925500      -0.25510400      -0.96183400
H       -3.05317400      -1.03888800      -0.21527600
H       -2.93049300       0.60268700       0.16198900
H       -0.99170600       1.66282300       0.35802300
H        1.42792300       1.71292100       0.02028600
H        1.31912200      -1.22532500       0.99760100
H        2.80073000      -0.15306600       0.93910900
H        1.02467100      -0.97425600      -1.46932100
H        2.50372700       0.10057100      -1.54462600
