16
Properties=species:S:1:pos:R:3 pbc="F F F"
C        0.34355600      -1.50724300       2.35574800
C        0.09205400      -0.26488400       1.51137700
C        0.44676500      -0.47393500       0.03238900
C        0.22933400       0.78457700      -0.79672800
C       -0.12668400       0.72799500      -2.23050500
O       -1.10206900       1.04434900      -1.24411700
H        0.07631500      -1.32920900       3.39510600
H        1.39221600      -1.79736500       2.32406400
H       -0.24503000      -2.34958300       1.99786400
H        0.67581400       0.57269000       1.90953100
H       -0.95901700       0.02739900       1.58895300
H       -0.15581800      -1.28884200      -0.37981300
H        1.49543400      -0.78793500      -0.05226700
H        0.75421700       1.68533600      -0.43365200
H       -0.26676800      -0.24077300      -2.72766700
H        0.13903300       1.55443100      -2.90285900
