17
Properties=species:S:1:pos:R:3 pbc="F F F"
C       -0.61573800       2.10220800      -1.06605700
C       -0.66918100       0.99610300      -0.02005800
C       -0.03162800      -0.34047800      -0.50600300
C       -0.33852300      -1.49894100       0.46741600
O        0.24706100      -1.28687200       1.74440500
N        1.42773800      -0.25143700      -0.67720200
H       -1.08104100       3.01187500      -0.69205000
H       -1.13828000       1.80614000      -1.97352200
H        0.41089800       2.34138100      -1.33673400
H       -1.71401600       0.81217900       0.25489000
H       -0.16453300       1.33431300       0.89222600
H       -0.48619700      -0.59175800      -1.48499000
H       -1.43732500      -1.62756600       0.57014500
H        0.07036400      -2.44098300       0.07662500
H       -0.07370700      -0.45408000       2.11424500
H        1.88090900      -0.31459400       0.23267100
H        1.69269700       0.62477200      -1.12012200
