18
Properties=species:S:1:pos:R:3 pbc="F F F"
C       -1.26413100       1.80176500      -0.96761300
C       -1.64280000       0.33974800      -1.16452000
C       -1.13392800      -0.57359200      -0.03657800
C        0.36730000      -0.68343100       0.00744500
C        1.10280600      -0.51572400       1.11336800
C        2.59225800      -0.65306000       1.16214600
H       -1.62138700       2.40983100      -1.79646600
H       -0.18477400       1.91906400      -0.90340400
H       -1.69689800       2.19643200      -0.05040900
H       -1.24599200      -0.01428000      -2.12223000
H       -2.73292900       0.25126100      -1.22932500
H       -1.55957700      -1.57595300      -0.18873800
H       -1.51134400      -0.22063400       0.92885400
H        0.86327900      -0.93328400      -0.93113100
H        0.60984700      -0.26389700       2.05260800
H        3.00244900      -0.90535900       0.18696800
H        2.88866900      -1.43104100       1.86794000
H        3.05962900       0.27363200       1.49984400
