19
Properties=species:S:1:pos:R:3 pbc="F F F"
C        0.07773700       1.95633300       0.16812700
C       -0.37147400       0.64496800      -0.49601400
C       -1.84212100       0.59575100      -0.59785700
C       -3.04588600       0.55307000      -0.69092400
C        0.15786300      -0.61266300       0.23786500
C        1.68218600      -0.76054100       0.16978300
C        2.16548800      -2.06154700       0.79926700
H        1.16258300       2.03840600       0.16823600
H       -0.26607400       2.01014300       1.19867000
H       -0.32472000       2.81393000      -0.36607400
H        0.02572700       0.63026600      -1.52724700
H       -4.10444300       0.51863800      -0.77069300
H       -0.30735400      -1.49800400      -0.20629500
H       -0.16393300      -0.58784000       1.28349200
H        2.16173200       0.08460200       0.67421200
H        2.00671000      -0.71915300      -0.87593300
H        1.88330900      -2.11727500       1.84866900
H        3.24865600      -2.14232600       0.73774600
H        1.73505600      -2.92360800       0.29372700
