19
Properties=species:S:1:pos:R:3 pbc="F F F"
C       -2.31545500      -1.73805700      -0.63218300
C       -0.82149100      -1.44219700      -0.64512600
C       -0.35049200      -0.73669000       0.64127800
C        1.13435900      -0.50502900       0.66663100
C        1.78301700       0.66376600       0.50368300
C        1.21561800       1.98733800       0.22527200
C        0.13471700       2.26027600      -0.51853200
H       -2.61970800      -2.23592700      -1.55070200
H       -2.89627200      -0.82246400      -0.53921100
H       -2.57999300      -2.38443700       0.20248400
H       -0.57776000      -0.81863500      -1.51125000
H       -0.26365100      -2.37599300      -0.77094700
H       -0.62062700      -1.36501100       1.49988700
H       -0.88953400       0.20752500       0.75990700
H        1.73956800      -1.38864500       0.87588100
H        2.86683400       0.65549400       0.63176300
H        1.78061100       2.82372500       0.64140800
H       -0.43599600       1.48409000      -1.01230900
H       -0.18511300       3.28383000      -0.67305300
