10
Properties=species:S:1:pos:R:3 pbc="F F F"
C       -2.15582300       1.27528100      -1.52243700
C       -0.82000700       1.20790800      -1.43665800
C       -0.11392000       0.48407400      -0.42498300
C        0.52507900      -0.16799000       0.38471900
C        1.27942800      -0.82266800       1.45075900
O        1.45328000      -2.01312500       1.54604800
H       -2.63081700       1.84360400      -2.31216100
H       -2.79639400       0.76834300      -0.81145900
H       -0.19220300       1.72874300      -2.16244900
H        1.70463800      -0.09532600       2.20928300
