16
Properties=species:S:1:pos:R:3 pbc="F F F"
C        0.59836400      -1.27576300      -1.96123000
C       -0.38878800      -1.05341900      -0.82287600
C        0.24085300      -0.29892500       0.35402300
C       -0.68702300       0.14971900       1.49081600
C       -0.28789100       1.56787800       1.10251900
O        0.55159000       1.08730500       0.03575000
H        0.11891300      -1.77322700      -2.80200800
H        1.43496800      -1.89265000      -1.63761900
H        0.99774500      -0.32684000      -2.30980700
H       -0.77023500      -2.01711600      -0.46465400
H       -1.25461700      -0.49380700      -1.19046200
H        1.15577200      -0.82636100       0.70263100
H       -0.39052400      -0.16670300       2.49458100
H       -1.74488700      -0.09113900       1.35405300
H        0.28763000       2.13398000       1.85880300
H       -1.10057800       2.21847800       0.72897200
