17
Properties=species:S:1:pos:R:3 pbc="F F F"
C       -1.03725600      -0.11592900       2.19822900
C       -1.02807000      -0.13767800       0.66430300
C       -0.36983600      -1.36970700       0.08417100
C        0.59204700      -1.06160400      -0.80312800
C        0.73789800       0.38805100      -0.93557900
C        1.58198600       1.03374700      -1.76136600
C       -0.23855700       1.03505600       0.02459600
H       -1.57639900      -0.97451600       2.59430500
H       -1.52246500       0.78521600       2.56853900
H       -0.02586700      -0.13999400       2.59800000
H       -2.08052100      -0.10438200       0.32820700
H       -0.66956000      -2.37720900       0.35924500
H        1.18798800      -1.77865400      -1.35894000
H        2.24735500       0.48686000      -2.41752200
H        1.61890900       2.11508000      -1.79609200
H       -0.90157000       1.73911100      -0.48890500
H        0.29285200       1.61687600       0.78580800
