16
Properties=species:S:1:pos:R:3 pbc="F F F"
C        0.52542300      -1.71786000      -0.04054500
C        0.02853200      -0.33211600       0.39015500
C       -1.50498400      -0.31524500       0.49577100
O       -2.20405100       0.60366900       0.15663400
C        0.53880800       0.80572800      -0.51995200
C        2.03109000       1.07170400      -0.37730800
H        1.61026300      -1.77603400       0.00846200
H        0.22510300      -1.93985200      -1.06265800
H        0.11704300      -2.49300400       0.60655500
H        0.39743700      -0.14873800       1.41496000
H       -1.95502800      -1.25242100       0.95699900
H       -0.02109000       1.71428700      -0.27960800
H        0.30428100       0.56510000      -1.56125800
H        2.28573400       1.33591000       0.64744700
H        2.33612800       1.89387400      -1.02097000
H        2.61932200       0.19825300      -0.65172500
