19
Properties=species:S:1:pos:R:3 pbc="F F F"
C       -2.38386900      -0.90665100       0.27210000
C       -1.43167700      -0.18851800      -0.68200600
C       -0.91912600       1.11481900      -0.12885200
C        0.36101300       1.51840200      -0.08211600
C        1.56272600       0.77583900      -0.51194100
C        1.98681000      -0.42088900      -0.07306300
C        1.32206800      -1.26909900       0.96331000
H       -2.76876300      -1.81834900      -0.18046100
H       -3.23175400      -0.27359600       0.52666300
H       -1.88198400      -1.17770400       1.19867900
H       -1.97121100       0.02172100      -1.61668600
H       -0.59963300      -0.84426700      -0.94818800
H       -1.68704600       1.81097200       0.21182000
H        0.55692200       2.53925200       0.25631900
H        2.20178800       1.31234600      -1.21760600
H        2.92079900      -0.81355700      -0.47626700
H        0.48622600      -0.75304800       1.42819600
H        2.03522200      -1.54573300       1.74169000
H        0.95176500      -2.20144600       0.53124200
