16
Properties=species:S:1:pos:R:3 pbc="F F F"
N        0.21538700      -1.60874600       1.34917200
C       -0.72786900      -0.87360800       0.49825000
C        0.00704800       0.19511300      -0.32420000
N        1.09578600      -0.30981200      -1.15870700
C       -0.77699100       1.35657000      -0.86178600
C        0.18805200       1.56463800       0.27116000
H       -0.26979600      -2.31344100       1.89829200
H        0.69186900      -0.97333000       1.98442200
H       -1.53645000      -0.39676500       1.08988000
H       -1.21865500      -1.59371100      -0.17491000
H        0.73247200      -0.92727000      -1.88272100
H        1.74075500      -0.85230000      -0.58620900
H       -1.83761800       1.41464100      -0.63565700
H       -0.49769100       1.75420300      -1.83106000
H       -0.22847800       1.76089300       1.25464900
H        1.10393700       2.10071000       0.04951600
