21
Properties=species:S:1:pos:R:3 pbc="F F F"
C        0.57549200      -0.72716900      -2.55284500
C       -0.10557800       0.12007400      -1.48450000
C        0.60980900       0.03908500      -0.12952300
C        0.46187100      -1.27951500       0.65913300
C       -0.06084400      -0.50577000       1.87554900
C        0.00449400       0.81578500       1.07842400
C       -1.32387200       1.53712200       0.87737800
H        0.03984200      -0.66443400      -3.49806000
H        0.61284400      -1.77402600      -2.25769200
H        1.59746100      -0.39404200      -2.72420200
H       -1.14598800      -0.20269800      -1.37604400
H       -0.13699700       1.16417900      -1.81593600
H        1.66754500       0.30534700      -0.27440500
H        1.39203400      -1.83034100       0.82306600
H       -0.26757100      -1.97222100       0.23185600
H        0.59953800      -0.53594900       2.74621400
H       -1.06256200      -0.79476900       2.20336800
H        0.72706600       1.52670200       1.50691200
H       -2.08953600       0.86642700       0.49295100
H       -1.21916500       2.36525700       0.17808300
H       -1.68273700       1.94289800       1.82219300
