16
Properties=species:S:1:pos:R:3 pbc="F F F"
C       -1.91384800       0.83810400      -0.81266900
C       -0.41867100       0.51813300      -0.70405800
N       -0.11149000       0.07747000       0.67295600
N        1.22441700       0.03615800       0.99451600
C        1.59748700      -0.76271500       1.94379500
C        0.01178100      -0.53382000      -1.74746600
H       -2.19995100       1.60817400      -0.09965000
H       -2.51790800      -0.04520100      -0.61190800
H       -2.16142000       1.19078600      -1.81074400
H        0.15693600       1.44235000      -0.88569800
H       -0.63994900      -0.75608100       0.96761100
H        2.64416400      -0.76073000       2.24440800
H        0.90455900      -1.44124800       2.46617900
H       -0.53898100      -1.46322000      -1.61504800
H        1.07187500      -0.75260600      -1.64657200
H       -0.17031600      -0.17582900      -2.75849500
