15
Properties=species:S:1:pos:R:3 pbc="F F F"
N       -0.98003000       0.05621700      -2.16538000
C       -1.38981900       0.51422200      -0.83526300
C       -0.78177200      -0.36675400       0.26469100
C        0.73716200      -0.25918900       0.32104500
C        1.49716400      -0.62426200       1.53550600
O        1.27626200       0.73881800       1.19082300
H       -1.34931300       0.67141700      -2.88555700
H       -1.31676000      -0.88726500      -2.34127400
H       -2.49517800       0.51994200      -0.72467900
H       -1.05760300       1.55200400      -0.70504900
H       -1.06976700      -1.41222800       0.08919900
H       -1.20069900      -0.08461700       1.23495100
H        1.25139600      -0.32329900      -0.65097800
H        2.54056900      -0.95823500       1.46189700
H        0.97105200      -0.96589000       2.43669600
