18
Properties=species:S:1:pos:R:3 pbc="F F F"
C       -0.95484500      -2.11070100       0.81031400
N       -1.24097200      -0.88010400       0.07708800
C       -0.74903400       0.34579800       0.72874900
C        0.77686200       0.49739500       0.65434600
C        1.32790500       0.53610800      -0.77559100
N        0.92858300       1.75895800      -1.48076900
H       -1.42785400      -2.95388500       0.30229800
H       -1.32298800      -2.08967600       1.85237000
H        0.12189500      -2.29656800       0.84513500
H       -2.25000500      -0.80027500      -0.06707100
H       -1.06107100       0.38901600       1.79451300
H       -1.23039000       1.20024000       0.23198100
H        1.25074500      -0.33130200       1.19162600
H        1.06401500       1.41262600       1.18185200
H        1.00349300      -0.37553300      -1.31702700
H        2.42747800       0.50103900      -0.73978800
H       -0.08502100       1.82649100      -1.52640200
H        1.29109200       1.75425000      -2.43063400
