12
Properties=species:S:1:pos:R:3 pbc="F F F"
N       -1.11564600      -0.36478400      -1.22628900
C        0.29350700       0.01665400      -1.22000000
C        0.80839700       0.16710200       0.20532400
C        0.24236900      -0.58394800       1.34479900
O       -0.07472200       0.78993000       1.14225700
H       -1.51767400      -0.25583800      -2.15380700
H       -1.62614700       0.22549500      -0.57063000
H        0.47189900       0.96805100      -1.76596200
H        0.89045200      -0.74710100      -1.74797700
H        1.85269400       0.51469800       0.28644900
H        0.86014500      -0.79027000       2.22894100
H       -0.58970300      -1.27984200       1.18821500
