14
Properties=species:S:1:pos:R:3 pbc="F F F"
C       -1.47766400       0.50886700      -0.42046900
C       -0.03455700       0.40465600      -0.81541300
C        0.40351800       0.89397300      -2.00089800
N        0.88952300      -0.20602200       0.04491800
C        0.75211400      -0.78904100       1.30013900
N       -0.29797600      -0.93206700       2.03799600
H       -2.03766600       1.00662000      -1.20720700
H       -1.60037700       1.08560500       0.49627300
H       -1.92077400      -0.47447800      -0.26308100
H       -0.28373100       1.36804300      -2.68424500
H        1.44399200       0.81906000      -2.28694700
H        1.83638200      -0.21993300      -0.32597800
H        1.71872400      -1.17017800       1.67391300
H       -1.15784800      -0.55884200       1.63672100
