14
Properties=species:S:1:pos:R:3 pbc="F F F"
C       -1.02050100       0.89062100       1.72095000
C       -1.48298100       0.36201500       0.57657700
O       -0.77119800      -0.35009000      -0.34080600
C        0.58464800      -0.22244300      -0.52685000
C        1.26401500       0.92710900      -0.34711300
C        1.19776900      -1.48414900      -1.06103100
H       -1.70506500       1.39110100       2.39050700
H        0.02078500       0.83163400       2.00393300
H       -2.54758100       0.39238500       0.31890900
H        0.77782900       1.82770900      -0.00166700
H        2.32225100       0.96471700      -0.56163200
H        0.70027500      -1.79309100      -1.98037500
H        1.08829200      -2.30230200      -0.34861800
H        2.25511000      -1.35035500      -1.26981100
