13
Properties=species:S:1:pos:R:3 pbc="F F F"
C        0.90612500       1.73524800      -0.31021100
C        0.36688600       0.30343900      -0.41943500
C       -1.10531300       0.28660600      -0.42581100
N       -2.25510900       0.23922600      -0.41197500
C        0.89724000      -0.60217500       0.72781400
O        0.43832100      -1.92737200       0.58591100
H        1.99359200       1.73327100      -0.35008500
H        0.60331900       2.19642800       0.62763500
H        0.53711100       2.35411000      -1.12450900
H        0.69683400      -0.12963000      -1.37753500
H        0.59147000      -0.18407500       1.70912800
H        1.99631800      -0.62140000       0.70398500
H       -0.52908100      -1.94301500       0.57378100
