15
Properties=species:S:1:pos:R:3 pbc="F F F"
C        1.42833300      -0.11955600      -0.96558800
C        0.84421500      -0.15757300       0.45128800
C       -0.68531600      -0.29924000       0.49411300
C       -1.48421200      -1.00576000      -0.54746700
N       -1.47025200       0.45558700      -0.49147600
O        1.20810900       1.03602100       1.16282600
H        2.49121400       0.10669500      -0.92596200
H        0.93897900       0.64360400      -1.56746800
H        1.30591300      -1.07640700      -1.46945800
H        1.29897100      -0.99660100       1.01366800
H       -1.09760100      -0.30993000       1.51089100
H       -2.40567900      -1.50886000      -0.24679900
H       -0.99040100      -1.44503400      -1.41522100
H       -2.33451100       0.80858400      -0.07487400
H        0.80188100       1.79344700       0.71887000
