17
Properties=species:S:1:pos:R:3 pbc="F F F"
N       -0.79204300       1.93221000      -1.28638200
C       -1.16606000       0.53293500      -1.49544900
C       -0.77210900      -0.30964500      -0.28650000
O        0.65033500      -0.29984400      -0.15977200
C        1.16684000      -1.17690400       0.84514200
C        0.91166700      -0.67560600       2.26544000
H       -0.88570100       2.46469000      -2.14754000
H        0.17574800       1.97878400      -0.97483000
H       -0.69382100       0.10889400      -2.40551700
H       -2.25454500       0.46203600      -1.65204400
H       -1.13235100      -1.35461900      -0.40883300
H       -1.24551500       0.08590500       0.63571500
H        2.25067900      -1.25519100       0.66281100
H        0.73549500      -2.19180600       0.71484000
H        1.30461000       0.32968400       2.39877700
H        1.39628400      -1.32710900       2.99035900
H       -0.15129400      -0.65266300       2.49731500
