16
Properties=species:S:1:pos:R:3 pbc="F F F"
C       -1.01561200      -0.29414000      -1.70498500
C       -1.46429100       0.36708300      -0.63801000
C       -0.63237100       1.03295500       0.42504800
C        0.88514400       0.88118200       0.29663300
C        1.44983900      -0.48054900       0.59955700
C        0.77100200      -1.55385700       1.00457900
H       -1.70511900      -0.72854600      -2.41860800
H        0.04208800      -0.43038000      -1.89255300
H       -2.54206200       0.46987700      -0.49867600
H       -0.95974500       0.66973500       1.40803900
H       -0.87761500       2.10471600       0.42245000
H        1.36669600       1.60288000       0.97154900
H        1.20500900       1.17944700      -0.71033000
H        2.53195900      -0.55822900       0.47896800
H       -0.30346800      -1.53692700       1.13713700
H        1.27999200      -2.48861100       1.20509000
