15
Properties=species:S:1:pos:R:3 pbc="F F F"
C       -1.55314100       0.03053100      -1.52440900
O       -1.67879800      -0.48042500      -0.20992700
C       -0.74122600       0.06853000       0.72129900
C        0.68592600      -0.40130600       0.44731900
C        1.84956000       0.25145200       1.11323600
N        1.57240400       0.49920200      -0.30068400
H       -2.35861100      -0.39634600      -2.13085700
H       -0.58444100      -0.24120500      -1.97799100
H       -1.64001700       1.13140000      -1.53586100
H       -1.06725600      -0.26660800       1.72104500
H       -0.79092100       1.17508500       0.70516000
H        0.78640900      -1.46966100       0.21940400
H        2.72833700      -0.35009600       1.35429500
H        1.68758400       1.10355900       1.77568900
H        2.21575600      -0.03238500      -0.89134400
