16
Properties=species:S:1:pos:R:3 pbc="F F F"
C       -0.11680500      -2.27000500       0.86552600
C       -0.63818000      -1.07868800       0.07436900
C       -0.02128400       0.25928100       0.55594000
C       -0.56725100       1.47481200      -0.22269000
O       -0.01331800       1.49823600      -1.53731700
O        1.39829500       0.24697500       0.39496400
H       -0.51767800      -3.20365700       0.47546600
H       -0.39875900      -2.19301500       1.91397000
H        0.96789200      -2.31193100       0.81341300
H       -1.73005300      -1.02135900       0.15747800
H       -0.41506900      -1.21957000      -0.98997200
H       -0.23758000       0.38195300       1.63655300
H       -1.67420800       1.46070800      -0.27571800
H       -0.26706200       2.41254400       0.26524000
H       -0.34189500       0.74247100      -2.04321300
H        1.59572000       0.67777500      -0.45325000
