18
Properties=species:S:1:pos:R:3 pbc="F F F"
C        1.77851700       0.60769300       0.69091100
C        2.13135700      -0.70774100       0.07053600
C        0.97901900      -0.61414500       1.02440900
C       -0.46942800      -0.78955800       0.57043100
C       -0.83032600      -0.08018200      -0.72763600
C       -2.24796300       0.27560800      -1.01810600
N       -1.27363300       1.31760600      -0.68819700
H        1.32399600       1.35690100       0.05244200
H        2.44321400       1.00423200       1.45215900
H        3.03341000      -1.20584900       0.41204700
H        1.92028200      -0.84161800      -0.98546600
H        1.16431600      -1.03812500       2.01369400
H       -1.13526200      -0.43509700       1.36740400
H       -0.67769800      -1.86405500       0.46468600
H       -0.18661100      -0.31453600      -1.58344400
H       -3.01145400       0.05226600      -0.27006900
H       -2.60851800       0.28463000      -2.04778500
H       -1.39730800       1.62796700       0.27844100
