14
Properties=species:S:1:pos:R:3 pbc="F F F"
C       -1.22283400      -0.40747800       2.10696600
C        0.25227800      -0.41144800       1.72525300
C        0.52335500       0.27591600       0.39236900
O       -0.13055100      -0.46631600      -0.66892500
C        0.04318300       0.03670100      -1.90907300
O        0.69398100       1.03746400      -2.15038900
H       -1.37825900      -0.91891300       3.05426600
H       -1.81818200      -0.91054000       1.34879500
H       -1.59801300       0.60924000       2.20727700
H        0.61643300      -1.44269400       1.68026100
H        0.83729700       0.09110500       2.50278400
H        1.60286800       0.31483000       0.17287000
H        0.14070900       1.30925800       0.38050600
H       -0.48617700      -0.58361600      -2.68533400
