13
Properties=species:S:1:pos:R:3 pbc="F F F"
C       -2.11594100       1.49436600      -1.21664300
C       -1.20431700       0.54238700      -1.01774100
C       -0.44692600       0.35325300       0.27306000
N        0.98031700       0.13953700       0.04121600
C        1.65485500      -0.91397300       0.61267700
O        1.12421800      -1.74999800       1.33377500
H       -2.65089900       1.57353200      -2.15492700
H       -2.35665700       2.21615000      -0.44405000
H       -0.98481000      -0.16944200      -1.81330800
H       -0.80942900      -0.53973600       0.80317700
H       -0.61114200       1.21812400       0.94093000
H        1.47707200       0.80303500      -0.54441200
H        2.75386900      -0.93463700       0.34575500
