17
Properties=species:S:1:pos:R:3 pbc="F F F"
C       -0.92444900      -0.02692900      -2.13647600
C       -0.91324600      -0.00806000      -0.61173400
C       -0.05428700      -1.09873300       0.06749700
C        0.88602800      -0.01214800       0.62199300
C       -0.04286300       1.09225000       0.03944900
N        1.09123700      -0.04095700       2.07203700
H       -1.42756800      -0.91728600      -2.51030400
H        0.08695600      -0.02192100      -2.53793200
H       -1.44555800       0.84356500      -2.53157100
H       -1.95048600       0.00286700      -0.24627200
H        0.41070200      -1.81868100      -0.61062100
H       -0.58633800      -1.65585100       0.84172800
H        1.87423400      -0.01936400       0.13214100
H        0.43219000       1.78576900      -0.65878600
H       -0.56994700       1.67706000       0.79698600
H        0.19941900      -0.03422300       2.56102100
H        1.63065100       0.76648500       2.37498500
