11
Properties=species:S:1:pos:R:3 pbc="F F F"
O       -1.38919700       0.11247200       0.55753100
C        0.02690300       0.10754800       0.55385500
C        0.52598200      -1.27803900       0.34769300
N        0.89181300      -2.36246600       0.23077200
C        0.57158000       1.06285100      -0.48842600
C       -0.19555400       1.84514800      -1.24395600
H       -1.72984700      -0.64763800       1.04819600
H        0.40505400       0.42772500       1.56061200
H        1.65704800       1.09312100      -0.57840300
H       -1.27465000       1.81171500      -1.15698100
H        0.23982400       2.52751600      -1.96407600
