19
Properties=species:S:1:pos:R:3 pbc="F F F"
C       -0.51033000       2.41514600      -0.65446400
C        0.04813200       1.47738300       0.11042300
C        0.49494500       0.11312600      -0.39102300
C       -0.36656100      -0.98237100       0.24765900
C        0.08799900      -1.84664500       1.16475800
C       -1.79454400      -1.02601900      -0.22576800
C        2.00123800      -0.07086500      -0.16032300
H       -0.80637500       3.37313600      -0.24381800
H       -0.68456600       2.25467300      -1.71248300
H        0.21111600       1.67364600       1.17032800
H        0.30953900       0.07726000      -1.47758100
H       -0.56511800      -2.60174800       1.58517000
H        1.11061700      -1.82551500       1.51791600
H       -2.36185800      -1.79711700       0.28939900
H       -1.84105900      -1.22614100      -1.29742000
H       -2.28589500      -0.06675300      -0.06100500
H        2.25809000       0.03086100       0.89206400
H        2.56104800       0.68095900      -0.71254000
H        2.32919200      -1.05179700      -0.49760300
