16
Properties=species:S:1:pos:R:3 pbc="F F F"
C       -1.11832400      -0.80678100      -1.05825500
C        0.36576800      -0.65975000      -0.70113600
C        0.58220900       0.12936800       0.61875900
C        0.13418600       1.55966300       0.52287500
C       -0.75751200       2.13029300       1.33414700
O        0.97751400      -1.94778600      -0.59405600
H       -1.58515200       0.16728500      -1.18540300
H       -1.65913700      -1.33701600      -0.27534300
H       -1.23618600      -1.36554200      -1.98380000
H        0.89082900      -0.13566000      -1.52151500
H        1.65319900       0.10262500       0.85386200
H        0.06575700      -0.37436000       1.44249800
H        0.59008300       2.15152700      -0.27208000
H       -1.23033600       1.57413700       2.13514800
H       -1.03499100       3.17090900       1.22048000
H        0.48786900      -2.48837600       0.04025600
