17
Properties=species:S:1:pos:R:3 pbc="F F F"
C       -2.99783400       1.66155400       0.79648800
C       -1.50508000       1.56282000       0.80849100
C       -0.82717700       0.40898500       0.80357800
C        0.68011700       0.32336500       0.84348900
C        1.23262500      -0.57978800      -0.17473500
C        1.69476200      -1.32334500      -1.00942400
C        2.25184900      -2.21762800      -2.01647500
H       -3.34361200       2.21238300      -0.07979700
H       -3.35910900       2.20275500       1.67267800
H       -3.46305900       0.67869200       0.78624600
H       -0.95844400       2.50658800       0.82058200
H       -1.36888800      -0.53588700       0.78510400
H        0.99832800      -0.03555400       1.83665500
H        1.11848400       1.32334600       0.72511800
H        1.45812800      -2.74090600      -2.55280300
H        2.89956300      -2.96626700      -1.55625500
H        2.84304100      -1.66093000      -2.74600700
