14
Properties=species:S:1:pos:R:3 pbc="F F F"
C       -1.85467100       0.37153600       0.65597800
C       -0.34788400       0.23625000       0.59709200
C        0.44983100       1.07855700      -0.37168000
C        0.31958300      -0.41394400      -0.57099800
N        1.45355800      -1.29868000      -0.34261200
H       -2.15104500       1.20471300       1.29299000
H       -2.31312100      -0.53095300       1.05971500
H       -2.27105300       0.54388300      -0.33423100
H        0.12571800       0.07226600       1.56640800
H        1.40203700       1.46995000      -0.02883600
H       -0.09856300       1.73816400      -1.03638500
H       -0.32216400      -0.74374100      -1.39344500
H        1.93276100      -1.05578000       0.52033300
H        2.11937700      -1.24213300      -1.11061700
