17
Properties=species:S:1:pos:R:3 pbc="F F F"
C       -0.93297200      -1.79609100      -1.70640000
C        0.33956400      -1.01548200      -1.77813800
C        0.75305900      -0.05668300      -0.92918800
C        0.04424000       0.47682300       0.25431100
C       -1.29774400       0.64006900       0.28926900
C        0.91763600       0.88211700       1.37746000
C        0.51923700       1.19001700       2.61806200
H       -0.76567400      -2.82316700      -2.02974600
H       -1.69349600      -1.37490500      -2.36851900
H       -1.34358300      -1.81090900      -0.69891700
H        1.00696900      -1.28328600      -2.59770600
H        1.74797800       0.36123600      -1.09313300
H       -1.91943300       0.39878100      -0.56218600
H       -1.78782400       1.06346400       1.15773500
H        1.98491800       0.90518100       1.15338300
H       -0.52487500       1.16682400       2.90822700
H        1.23690500       1.47214900       3.37860500
