14
Properties=species:S:1:pos:R:3 pbc="F F F"
C       -1.59233300       0.02152900      -0.01795200
C       -0.07115000       0.00858400       0.12706600
N        0.42196800       0.07707500       1.50130700
C        0.74004500      -0.80876200      -0.83832500
C        0.76134400       0.69155100      -0.92147400
H       -2.04240300      -0.82258400       0.50457000
H       -1.88851600      -0.03360000      -1.06264900
H       -2.01838200       0.93122500       0.40524200
H        0.09381100      -0.72047600       2.04223500
H        0.09653800       0.92591100       1.95966400
H        0.22009500      -1.34863100      -1.62322800
H        1.63332800      -1.29722800      -0.46578400
H        0.25555700       1.15614200      -1.76191100
H        1.66876300       1.19230100      -0.60317700
