17
Properties=species:S:1:pos:R:3 pbc="F F F"
C        2.04666500      -0.81929800       1.20481900
C        0.92879400      -0.86558800       0.16828800
C       -0.29664500      -0.06798300       0.59864800
C       -0.42202800       1.39568400       0.24357700
C       -1.34880900       0.37036800      -0.36968600
N       -1.26742500       0.02069700      -1.78051500
H        2.90592300      -1.40042900       0.87581600
H        1.71316500      -1.22531600       2.15783600
H        2.37754700       0.20271500       1.37698200
H        0.64201700      -1.90947000      -0.00780800
H        1.30631800      -0.48372100      -0.78604200
H       -0.66007900      -0.33195400       1.59412900
H        0.35201200       1.81982600      -0.38725700
H       -0.81335500       2.07229900       0.99722300
H       -2.37910400       0.36699600       0.00070800
H       -0.30016600      -0.06567800      -2.07950400
H       -1.72016200       0.73075600      -2.35236100
