15
Properties=species:S:1:pos:R:3 pbc="F F F"
N       -1.74135300      -0.39951700      -0.30305200
C       -1.32264000       0.81257200      -0.10074900
C        0.06474500       0.87962900       0.50070900
C        0.41813000      -0.61464300       0.62417300
N       -0.72432700      -1.32759300      -0.00418100
C        1.63702400      -0.40719600      -0.30475500
C        1.25971900       1.07566600      -0.46393700
H       -1.96515300       1.66690300      -0.31558100
H        0.10967700       1.50644600       1.40545200
H        0.64862900      -1.02940100       1.62239700
H       -1.09370700      -2.11527800       0.53903200
H        1.61289700      -0.98988000      -1.22823600
H        2.60449800      -0.56990100       0.17796600
H        0.98261900       1.36846000      -1.47932800
H        2.01843500       1.77624600      -0.10372100
