18
Properties=species:S:1:pos:R:3 pbc="F F F"
C        0.68500100      -2.19836200      -0.01279900
C        1.12795800      -0.76388800       0.25689100
C        0.01548000       0.09584200       0.84433700
C        0.06455900       1.59258100       0.73068500
C       -0.99205300       0.82017300      -0.00761300
C       -0.98361800       0.74975000      -1.51967200
H        1.50666400      -2.79019700      -0.41120000
H       -0.13030800      -2.22760900      -0.73247900
H        0.33934200      -2.67898800       0.90046400
H        1.49951100      -0.31377900      -0.66872600
H        1.97641800      -0.77534600       0.95236100
H       -0.37473300      -0.28667400       1.79024400
H        0.86958200       2.02620900       0.14614800
H       -0.23497100       2.18558800       1.58968800
H       -1.99550000       0.88208100       0.41919100
H        0.02963400       0.75315700      -1.91401300
H       -1.50947400       1.60261200      -1.94868500
H       -1.48012900      -0.15362700      -1.87396200
