14
Properties=species:S:1:pos:R:3 pbc="F F F"
C       -2.04458100       0.13327300      -0.55866000
C       -0.52694600       0.01603500      -0.65035500
C        0.08377300      -1.20593600       0.04400800
O        1.30939700      -0.72986300       0.59492600
C        1.31271900       0.68918700       0.58999100
O        0.09477500       1.12556600       0.02388700
H       -2.52685500      -0.67564100      -1.10507000
H       -2.38190500       1.07617300      -0.98279100
H       -2.38039400       0.09081000       0.47563700
H       -0.22344300       0.03645600      -1.72468200
H        0.29320500      -2.04302400      -0.64397100
H       -0.56747900      -1.59841900       0.85211900
H        2.19229900       1.06287000      -0.00012400
H        1.41141200       1.08979200       1.62847100
