19
Properties=species:S:1:pos:R:3 pbc="F F F"
C       -0.97461700      -1.87713600      -1.49939800
C       -1.40110300      -1.91984200      -0.03810800
C       -1.01735400      -0.64637600       0.73667200
C        0.46964500      -0.47251800       0.86910400
C        1.19368700       0.62173600       0.55810900
C        0.68278000       1.86923700       0.00180100
C        1.46260100       2.92605000      -0.27532000
H       -1.25754300      -2.79339100      -2.01359100
H        0.10309400      -1.75961400      -1.58605900
H       -1.44227100      -1.04247300      -2.01758800
H       -0.94950900      -2.79024400       0.44994100
H       -2.48587000      -2.05894600       0.02276000
H       -1.45390200      -0.71330500       1.74360800
H       -1.47273400       0.22628600       0.26034700
H        1.00148300      -1.33555300       1.27243600
H        2.26982600       0.58764100       0.72904600
H       -0.38652500       1.93460900      -0.19656700
H        2.53061200       2.90149000      -0.09093300
H        1.04949300       3.83658900      -0.69055900
