18
Properties=species:S:1:pos:R:3 pbc="F F F"
C        1.42223000      -1.09067900       0.94453100
C        0.81347700      -0.30555000      -0.22265300
C       -0.75245900      -0.36926800      -0.21558500
N       -1.26846800       0.19102700      -1.48325100
C       -1.39048600       0.31866100       1.00924000
N        1.34263100       1.07218100      -0.22211800
H        2.50593100      -1.11950500       0.86010000
H        1.05520700      -2.11507600       0.95963000
H        1.17870200      -0.63187200       1.90113300
H        1.14425600      -0.77732000      -1.16495700
H       -1.03813500      -1.43674800      -0.19396200
H       -1.02922900       1.17736500      -1.55529600
H       -2.28237900       0.11281700      -1.51370200
H       -1.13173200       1.37545500       1.04832200
H       -1.06424900      -0.14264800       1.93862600
H       -2.47557700       0.24648500       0.96333200
H        1.06874700       1.56160200       0.62609400
H        0.99274300       1.58799900      -1.02493700
