15
Properties=species:S:1:pos:R:3 pbc="F F F"
C       -2.38824700       1.53912400      -0.02542500
N       -0.93165100       1.42811000      -0.04446100
C       -0.45128500       0.04131600      -0.00931800
C        1.08380700       0.01271700      -0.01712700
C        1.62444200      -1.34615500      -0.00365800
C        2.07432200      -2.46730600       0.00614600
H       -2.67391200       2.59315000      -0.02413500
H       -2.84868000       1.05834700       0.85635900
H       -2.81301600       1.06871000      -0.91639000
H       -0.53333800       1.95501700       0.73673300
H       -0.83920200      -0.49237700      -0.88832900
H       -0.83029900      -0.50546600       0.87942100
H        1.47032100       0.56058900       0.85359500
H        1.46008200       0.53942400      -0.90340900
H        2.47136100      -3.45233500       0.01367700
