18
Properties=species:S:1:pos:R:3 pbc="F F F"
C       -2.45806300       0.35597300      -0.60580200
C       -1.51395500      -0.51566500      -1.37330300
C       -0.98840900       0.64598900      -0.58586200
C       -0.18408500       0.42128200       0.68829900
N        1.26459900       0.43227400       0.40840200
C        2.11612100      -0.26868700       1.36861400
C        1.86633900      -0.84175300       0.01687300
H       -2.91110700      -0.05840200       0.28962000
H       -3.10669100       1.02078300      -1.16748000
H       -1.52185400      -0.44297700      -2.45624000
H       -1.33252000      -1.51606300      -0.99268900
H       -0.66574500       1.50815500      -1.17136800
H       -0.50143800      -0.52345800       1.17311800
H       -0.39676700       1.23017100       1.40778500
H        1.63260800      -0.74190100       2.22738900
H        3.07279200       0.20883400       1.58842800
H        1.20898600      -1.71129500      -0.06096500
H        2.64185400      -0.78259100      -0.74932800
