15
Properties=species:S:1:pos:R:3 pbc="F F F"
N       -0.47475000       0.55636500       2.19266700
C       -0.40460400       0.52225000       0.73976800
C        0.79888300       1.04202900       0.00880000
C        0.53575900      -0.45193900       0.07956000
C        0.12592600      -1.21537500      -1.13003200
C       -0.57297500      -0.73195800      -2.16193900
H       -0.80578100       1.46197500       2.51910400
H        0.43694200       0.37483800       2.60442600
H       -1.37700100       0.66341700       0.26082100
H        1.63316100       1.42165600       0.59057800
H        0.65699800       1.52179000      -0.95454500
H        1.18886000      -1.00271800       0.75672700
H        0.42672000      -2.26326200      -1.14488800
H       -0.89737100       0.30140200      -2.19773400
H       -0.83720800      -1.36369100      -3.00009900
