15
Properties=species:S:1:pos:R:3 pbc="F F F"
C        0.43491400      -0.54679400       1.82759000
C        0.15959100      -0.20916700       0.36862900
C       -1.26665300       0.29426400       0.05854700
N       -1.41857700       0.85017500      -1.28634000
C        0.98683000      -0.83954900      -0.69087200
O        1.21292600       0.51227700      -0.29845900
H        1.47583600      -0.82413800       1.97464500
H       -0.18940300      -1.37657400       2.16038200
H        0.21835100       0.30563000       2.47056000
H       -1.98701600      -0.52605800       0.19151500
H       -1.53503800       1.06517400       0.79751500
H       -1.37431900       0.11490700      -1.98766900
H       -0.65517100       1.50122200      -1.46679100
H        0.59396000      -0.96563000      -1.70869400
H        1.79134300      -1.53650700      -0.42277900
