9
Properties=species:S:1:pos:R:3 pbc="F F F"
O       -2.43293800       0.05317500       1.45687500
C       -1.23076300       0.12555400       1.35735900
C       -0.49978400      -0.02511600       0.07106000
C        0.84397400       0.06248300       0.00142200
C        1.58839500      -0.07653300      -1.21550400
N        2.21068500      -0.18568900      -2.18215100
H       -0.56875100       0.31757600       2.25863500
H       -1.08611500      -0.21061200      -0.82722900
H        1.43264300       0.24912700       0.90263100
