16
Properties=species:S:1:pos:R:3 pbc="F F F"
C        0.48138400      -0.13691200      -1.59047300
C        0.01168300      -0.40183000      -0.15153300
C       -1.46068100      -0.46047300      -0.09195000
C       -2.66633400      -0.51783600      -0.04073000
C        0.55051500       0.64774900       0.85407400
C        2.06129600       0.58853700       1.03641600
H        1.56696900      -0.16286500      -1.65333100
H        0.14578200       0.83782300      -1.93727100
H        0.08593300      -0.88977200      -2.26833800
H        0.38991600      -1.39341100       0.15582900
H       -3.72648900      -0.56673200       0.00075500
H        0.06614000       0.48567200       1.82172900
H        0.25748500       1.64916400       0.52460600
H        2.37839100      -0.40181000       1.35810700
H        2.38264000       1.30379000       1.79057000
H        2.58606200       0.82272700       0.11252500
