21
Properties=species:S:1:pos:R:3 pbc="F F F"
C       -0.34715000      -2.82779100      -0.12135400
C       -0.61872600      -1.38504500      -0.52946800
C       -0.00102600      -0.33603400       0.43054700
C       -0.63767600       1.03977600       0.16594200
C       -0.11632200       2.00200500      -0.85704600
C       -0.01376500       2.33102300       0.60008000
C        1.52944400      -0.33303900       0.35193500
H       -0.82622100      -3.51908100      -0.81195800
H       -0.73350200      -3.03112700       0.87575400
H        0.71811000      -3.04865700      -0.11611800
H       -1.70223900      -1.22757300      -0.57208700
H       -0.24529900      -1.21441100      -1.54440800
H       -0.27952100      -0.62610100       1.45907600
H       -1.72703500       1.01166700       0.24983000
H       -0.83721700       2.55343200      -1.45268100
H        0.79967000       1.75355000      -1.38253500
H       -0.66830700       3.10292000       0.99302600
H        0.97111300       2.31003200       1.05435300
H        1.87682800      -0.07792400      -0.64724100
H        1.92703500      -1.31440900       0.60070100
H        1.95790500       0.38230700       1.05047700
