12
Properties=species:S:1:pos:R:3 pbc="F F F"
O       -2.19300700       1.20401500       1.12950600
C       -0.88469600       1.41461100       0.64024100
C       -0.36310400       0.15204600       0.01634100
C        0.94483600      -0.10108400      -0.17532800
C        1.44200300      -1.28668300      -0.80383900
C        1.91194900      -2.27072600      -1.33455900
H       -2.53741900       2.01647300       1.52119900
H       -0.21458000       1.76649300       1.45545600
H       -0.89489000       2.23634500      -0.11494000
H       -1.10917600      -0.57062600      -0.30656400
H        1.70110700       0.61597400       0.15281100
H        2.29308800      -3.14577100      -1.80115600
