15
Properties=species:S:1:pos:R:3 pbc="F F F"
N       -2.00484700      -0.91928900       0.68503000
C       -0.55585900      -0.86218400       0.51254300
C       -0.09744800       0.29180100      -0.35500900
C       -0.92755100       1.22303200      -0.84242700
C        1.39021400       0.32451900      -0.66305400
O        2.17642600       0.13136500       0.50607300
H       -2.25914000      -1.67964400       1.30986000
H       -2.46937500      -1.06450500      -0.20779500
H       -0.14642500      -1.80347200       0.08345200
H       -0.08618600      -0.76821400       1.50419500
H       -1.98918000       1.19840000      -0.63118100
H       -0.55567400       2.03635300      -1.45580600
H        1.66366700       1.28019300      -1.15485600
H        1.65276200      -0.48785000      -1.36190000
H        1.95593500       0.80983300       1.15793100
