14
Properties=species:S:1:pos:R:3 pbc="F F F"
C       -1.65905300       0.03081700      -0.68432300
C       -0.12300000       0.03199100      -0.64274400
C        0.38363500       0.93102900       0.48152900
C        1.18733900       0.55637900       1.47610700
N        0.37630900      -1.35035600      -0.57778400
H       -2.04661000       1.04280100      -0.78178300
H       -2.07221600      -0.40261200       0.22427200
H       -2.01611900      -0.55552300      -1.52775100
H        0.23814900       0.47097400      -1.59514200
H        0.04447300       1.96697700       0.43762500
H        1.54615400      -0.46330300       1.56321500
H        1.50817000       1.25899100       2.23547400
H        0.03701300      -1.80868600       0.26476200
H        1.39329700      -1.35842000      -0.55959900
