14
Properties=species:S:1:pos:R:3 pbc="F F F"
C       -1.55320800      -0.17446400       0.03492800
C       -0.02008500      -0.27286500       0.00346600
C        0.53412800      -0.03722000      -1.41086000
O        0.14986000      -0.64066500      -2.38144600
O        0.61066400       0.68868300       0.86751300
C        0.48871600       0.41472900       2.25234700
H       -1.98101000      -0.83007700      -0.72026200
H       -1.87812200       0.84282600      -0.17145200
H       -1.94889400      -0.46620900       1.00618500
H        0.28503000      -1.29645000       0.32479700
H        1.35229000       0.74175000      -1.48771400
H        1.07985600       1.15886200       2.79351600
H        0.86849900      -0.59364900       2.49431400
H       -0.55914800       0.47772400       2.59279700
