12
Properties=species:S:1:pos:R:3 pbc="F F F"
C       -0.78005500      -0.02580900      -1.99592200
C       -0.90015400       0.02497600      -0.48323700
C       -0.22784400      -1.09497000       0.33632100
C        0.63076100       0.04929200       0.86659400
O        1.53731400       0.18817200       1.65349000
O        0.01473500       1.01052900       0.11440300
H       -1.40910700      -0.81654100      -2.40003700
H        0.24645900      -0.21721800      -2.30009700
H       -1.09376500       0.91823100      -2.43571900
H       -1.93565600       0.25389700      -0.17113800
H        0.30221400      -1.85068400      -0.24793100
H       -0.86277700      -1.59822200       1.06925100
