12
Properties=species:S:1:pos:R:3 pbc="F F F"
O       -2.27177900       0.63488800      -0.56511300
C       -1.07629200       0.73086500      -0.45206100
C       -0.33964800       0.46392200       0.86680700
O        1.07796800       0.45455400       0.68504600
C        1.62474200      -0.57668400      -0.00543100
C        0.96994700      -1.61437300      -0.55770600
H       -0.42271600       1.05499200      -1.31752000
H       -0.67659300      -0.48247800       1.32411300
H       -0.55945600       1.27419600       1.57878900
H        2.71221600      -0.47971000      -0.07023000
H       -0.10386800      -1.72721500      -0.50487700
H        1.52842300      -2.37770400      -1.07940000
