16
Properties=species:S:1:pos:R:3 pbc="F F F"
C       -0.52570700       0.12085900      -1.88413500
C       -0.88141800       0.02089500      -0.39695700
C       -0.26840800      -1.22210000       0.27274800
O        0.94870500      -0.80488700       0.89354800
C        1.05634400       0.62030100       0.91579700
C       -0.28150700       1.17387400       0.42846500
H       -0.93757200      -0.72056200      -2.43891600
H        0.55245900       0.12076900      -2.02822400
H       -0.92281900       1.03634300      -2.31947100
H       -1.97796700       0.00796000      -0.30412900
H       -0.05070800      -2.03587300      -0.44177400
H       -0.95119100      -1.64210700       1.04206900
H        1.89484400       0.93647700       0.26072400
H        1.30994600       0.95235500       1.93973600
H       -0.16918700       2.09419700      -0.15098600
H       -0.93326400       1.40656000       1.27708100
