19
Properties=species:S:1:pos:R:3 pbc="F F F"
C       -1.55690400      -1.96266400      -0.69768800
C       -2.06687700      -0.78305300      -0.34230200
C       -1.39940600       0.56154600      -0.45357600
C        0.10131800       0.55384400      -0.77256500
C        0.95884400       0.06154200       0.38641300
C        2.40842000       0.43388700       0.45686400
C        1.43662700       1.02261600       1.43197400
H       -2.13558400      -2.87205700      -0.59086100
H       -0.55737400      -2.05960200      -1.10351200
H       -3.08406000      -0.75243000       0.05246600
H       -1.57177600       1.11403400       0.47890500
H       -1.92777400       1.13642300      -1.22796700
H        0.40781700       1.57135200      -1.03726500
H        0.28531800      -0.06259800      -1.66050900
H        0.70643600      -0.93768400       0.74263900
H        2.80709900       1.08796200      -0.31206200
H        3.11222400      -0.30588100       0.82491800
H        1.18376100       2.07185800       1.31692400
H        1.48177900       0.68231500       2.46160300
