13
Properties=species:S:1:pos:R:3 pbc="F F F"
C       -1.03940300       1.81484700       0.76793000
O       -1.24073000       0.65557700      -0.01576600
C       -0.79930700      -0.55715800       0.57462800
C        0.73919400      -0.71601300       0.54596500
C        1.27704800      -0.82330300      -0.80864500
N        1.71532200      -0.92464200      -1.86769600
H       -1.50343500       2.65636300       0.24645300
H        0.03385400       2.03621600       0.91082800
H       -1.50061800       1.70919600       1.76643800
H       -1.27078100      -1.37886700       0.01522000
H       -1.14595400      -0.62049300       1.62722200
H        1.02214000      -1.61670400       1.10480900
H        1.21818700       0.13193700       1.04975400
