12
Properties=species:S:1:pos:R:3 pbc="F F F"
C       -2.49226800       1.46148900       0.46736800
C       -1.18293400       1.37039500       0.18106900
C       -0.45946400       0.11289900       0.09467100
C        0.86235000       0.04108500      -0.19483200
C        1.59203000      -1.18169300      -0.28381100
C        2.25742400      -2.19347200      -0.36993900
H       -2.98979100       2.42158400       0.52100300
H       -3.09057400       0.57683400       0.65324900
H       -0.60947200       2.27985000      -0.00100000
H       -1.02122700      -0.80216200       0.27393200
H        1.43283100       0.95479400      -0.37440200
H        2.81540500      -3.09512200      -0.43993600
