16
Properties=species:S:1:pos:R:3 pbc="F F F"
C       -2.72636400       0.62059100      -0.21835400
C       -1.23393300       0.67867200      -0.12428500
C       -0.47247200      -0.32542900       0.32801300
C        1.04106900      -0.31382600       0.46678900
O        1.56418200      -1.57468100       0.01778200
C        1.74660700       0.83486200      -0.26587100
H       -3.05729300       0.78568800      -1.24504000
H       -3.18346000       1.40251800       0.39035200
H       -3.11096400      -0.34005600       0.11560100
H       -0.77154700       1.61103800      -0.44869500
H       -0.95489400      -1.24919700       0.64812300
H        1.29509600      -0.25713900       1.54566500
H        1.34806200      -1.69373900      -0.91693000
H        1.50846900       0.83413000      -1.32836500
H        2.82454600       0.73418700      -0.16495800
H        1.45908600       1.80080400       0.14422900
