17
Properties=species:S:1:pos:R:3 pbc="F F F"
C       -1.87725300       0.39399000       0.33276100
C       -0.37066700       0.61256000       0.14733200
N        0.25535800      -0.63676900      -0.35664600
C        1.66671700      -0.83090100      -0.02891000
C        0.61228000      -1.63301600       0.65179300
C       -0.08505600       1.76067900      -0.82842900
H       -2.06672700      -0.41752900       1.03276600
H       -2.35376100       0.13879400      -0.61122100
H       -2.35393600       1.29278500       0.71863400
H        0.06545100       0.88252100       1.13801000
H        2.16825000      -0.04706500       0.54523500
H        2.27633700      -1.28647100      -0.81158200
H        0.38494700      -1.40329600       1.69628900
H        0.45138700      -2.67434300       0.36647900
H       -0.50034400       1.54888100      -1.81125500
H        0.98644900       1.91224400      -0.94339100
H       -0.52168400       2.69098700      -0.47071900
