14
Properties=species:S:1:pos:R:3 pbc="F F F"
O        1.32707200      -0.74849100      -1.39589200
C        0.94355100      -1.33302300      -0.16577900
C        0.06505100      -0.37368100       0.62110500
C        0.40255800       1.10572700       0.64348000
C       -0.81150300       0.62030700      -0.08601600
O       -2.08968000       0.90591100       0.43477000
H        1.89519200      -1.35701500      -1.88494500
H        1.84865100      -1.60757600       0.42236200
H        0.39887200      -2.28629700      -0.35131800
H       -0.31348900      -0.78269400       1.55973800
H        1.26096700       1.42323700       0.06148300
H        0.26651700       1.63053700       1.58487300
H       -0.81120700       0.63465600      -1.17721600
H       -2.04258000       0.96980800       1.39725500
