21
Properties=species:S:1:pos:R:3 pbc="F F F"
C       -1.84249500      -0.16175500       0.66687900
C       -0.30553700      -0.13778200       0.71891200
C        0.21188500      -1.37952100       1.41871500
C        0.92998600      -1.36924400       2.54146600
C        0.32055800      -0.03008400      -0.69563600
C        0.07121800       1.32096000      -1.37613500
C        0.73941800       1.41291300      -2.74266000
H       -2.25937000      -0.22803300       1.66947300
H       -2.20049400      -1.01789600       0.09783300
H       -2.23387600       0.73987400       0.20024900
H        0.00582100       0.74347200       1.30166900
H       -0.03361400      -2.33319400       0.94922300
H        1.19234900      -0.44191200       3.03826100
H        1.27550000      -2.28914500       2.99789300
H       -0.06537100      -0.83690200      -1.32783000
H        1.40024600      -0.19365700      -0.61617200
H        0.44251100       2.12669900      -0.73359400
H       -1.00465800       1.48943900      -1.48853600
H        1.81682300       1.28291200      -2.66150300
H        0.55163600       2.38124300      -3.20193800
H        0.36229900       0.64417700      -3.41427800
