17
Properties=species:S:1:pos:R:3 pbc="F F F"
C       -3.10797200       0.03263900       0.57397900
C       -1.62053500      -0.01241500       0.42518800
C       -0.77687900      -0.30630300       1.42129500
C        0.72674500      -0.36048300       1.30532900
C        1.26248300      -0.06406500      -0.02716600
C        1.74633900       0.17541200      -1.10970800
C        2.31263200       0.46405100      -2.42142900
H       -3.58887800      -0.66985100      -0.10914900
H       -3.49325500       1.02422100       0.32928100
H       -3.41770900      -0.21194200       1.58770600
H       -1.22159500       0.21215000      -0.56308200
H       -1.17278600      -0.53042600       2.41239700
H        1.07626500      -1.35788900       1.61842200
H        1.16996700       0.33868100       2.03320800
H        2.99780200      -0.32724500      -2.73090300
H        2.86639700       1.40465000      -2.40792700
H        1.52692300       0.54463900      -3.17487800
