18
Properties=species:S:1:pos:R:3 pbc="F F F"
C       -0.13833600      -0.08329800       2.26827600
C       -0.42892300      -0.00019500       0.78458700
C        0.51419500       0.72606200      -0.14048900
C        0.40450100      -0.77767400      -0.20188500
C       -0.23502600      -1.49431900      -1.37203300
C       -0.01147500       1.61862300      -1.24471900
H       -0.49977500       0.80201700       2.79163200
H        0.93059200      -0.16706600       2.45400800
H       -0.62400600      -0.94976600       2.71734200
H       -1.48821800       0.08841800       0.53815800
H        1.43002800       1.09803800       0.32380900
H        1.25367400      -1.31401700       0.22663200
H       -1.12204800      -0.97361800      -1.72519800
H       -0.53284800      -2.50428700      -1.09049400
H        0.45893300      -1.57899700      -2.20855500
H       -0.96673600       1.26375400      -1.62476200
H        0.68619800       1.66331900      -2.08136200
H       -0.15540900       2.63701500      -0.88362300
