16
Properties=species:S:1:pos:R:3 pbc="F F F"
O       -2.63034900       0.08853000       0.57927800
C       -1.21749100       0.17624700       0.63477300
C       -0.60899100      -0.90156100      -0.25872700
C        0.92605000      -0.89361600      -0.24015000
C        1.51698700       0.37751100      -0.78733700
C        2.44258700       1.10931700      -0.16625000
H       -3.02438700       0.76598700       1.14318900
H       -0.86953400       0.05369300       1.68350600
H       -0.88409300       1.18430000       0.30913400
H       -0.96684600      -0.76264000      -1.28389000
H       -0.97029900      -1.88261000       0.06507800
H        1.28576300      -1.73628000      -0.84611700
H        1.29148100      -1.06593200       0.77777600
H        1.15595100       0.69048800      -1.76776700
H        2.82491800       0.82953900       0.80869800
H        2.84498100       2.00783600      -0.61768600
