15
Properties=species:S:1:pos:R:3 pbc="F F F"
O       -1.16524000      -1.34807200      -0.57048300
C       -1.57489200      -0.27350100      -0.14599600
N       -0.77270900       0.76339400       0.26486100
C        0.70641100       0.68928500       0.28326600
C        1.18566900      -0.40925900       1.24494800
C        1.25975300       0.48456100      -1.13473000
H       -2.67930800      -0.03115500      -0.05865100
H       -1.20741700       1.60295800       0.63185100
H        1.05183500       1.66856700       0.66133800
H        0.81607500      -1.37861000       0.92169500
H        0.82489900      -0.22300900       2.25479300
H        2.27234300      -0.44438500       1.27203000
H        0.88929900      -0.44807700      -1.55125500
H        2.34673700       0.44936100      -1.11739000
H        0.95476900       1.29864500      -1.78949800
