17
Properties=species:S:1:pos:R:3 pbc="F F F"
N       -2.52780300       0.96946400       0.53134100
C       -1.06447600       1.00442300       0.48979500
C       -0.48506500      -0.40821200       0.61611800
C        1.04830500      -0.43790000       0.65563800
C        1.71079200      -0.11359700      -0.69147000
O        1.35228900      -1.04934100      -1.69468200
H       -2.91282900       1.90723600       0.45749500
H       -2.85391700       0.55182800       1.39913600
H       -0.64249900       1.64878100       1.29222800
H       -0.75271100       1.45651000      -0.46195700
H       -0.83886900      -1.02208600      -0.21707800
H       -0.87449400      -0.87116700       1.53060700
H        1.37733700      -1.43358400       0.97835500
H        1.41476000       0.26493200       1.41290000
H        2.81563300      -0.09803400      -0.56404500
H        1.41358400       0.88286700      -1.05035800
H        1.47297500      -1.94709400      -1.35969700
