21
Properties=species:S:1:pos:R:3 pbc="F F F"
C        0.04604200       2.20080000      -1.29955300
C       -0.65233200       0.84819600      -1.36719100
C       -0.61592600       0.08956500      -0.03436600
C       -1.18580100      -1.34405200      -0.03128900
C        0.08951300      -1.85065600       0.65233400
C        0.75239800      -0.47337700       0.43848200
C        1.40302400       0.18281900       1.65054900
H       -0.00023100       2.71086700      -2.25964900
H        1.09435100       2.08656000      -1.03138600
H       -0.41901800       2.84402000      -0.55510100
H       -0.18925000       0.23705600      -2.14977200
H       -1.69616100       0.99262100      -1.66895700
H       -1.08329000       0.70431300       0.74806300
H       -1.32988000      -1.75511600      -1.03375200
H       -2.11415500      -1.48693500       0.52833800
H        0.58473900      -2.69707400       0.16869900
H       -0.05679900      -2.10136000       1.70570700
H        1.47495600      -0.50696700      -0.38951700
H        0.70612900       0.24936400       2.48422800
H        1.73910800       1.19134500       1.41469200
H        2.26798900      -0.38846200       1.98460800
