12
Properties=species:S:1:pos:R:3 pbc="F F F"
O       -1.38391900       1.49251900      -0.37855100
C       -1.72759100       0.52746000       0.25280600
C       -0.76746500      -0.42248800       0.96676900
C        0.71083100      -0.10602600       0.71101100
C        1.14286000      -0.40230400      -0.72824100
O        2.12880200      -1.03519200      -1.00548700
H       -2.82375500       0.26170000       0.37115400
H       -1.00437200      -1.45174900       0.67311200
H       -0.98133400      -0.36788100       2.04145400
H        1.34361700      -0.66613600       1.40365900
H        0.88190900       0.95985400       0.90095900
H        0.47306100       0.02574300      -1.53210300
