19
Properties=species:S:1:pos:R:3 pbc="F F F"
C       -2.37983300      -2.18075300       1.05647700
C       -1.46689600      -1.23692400       1.28829800
C       -0.72488400      -0.48545400       0.21823200
C        0.79857600      -0.53396700       0.41275200
C        1.55878800       0.26950600      -0.65377500
C        1.27072700       1.74501200      -0.59831500
C        0.90284000       2.48221400      -1.64655000
H       -2.89145800      -2.67940100       1.87064700
H       -2.64246400      -2.47969100       0.04820000
H       -1.22876900      -0.96604200       2.31792300
H       -1.04522800       0.56494400       0.23061900
H       -0.98718800      -0.87862900      -0.76882300
H        1.13816100      -1.57444200       0.38565500
H        1.05113000      -0.15083100       1.40779200
H        1.32774500      -0.11852200      -1.65080300
H        2.63578300       0.11547600      -0.49982100
H        1.39200200       2.22122500       0.37547700
H        0.77085300       2.04191100      -2.62811600
H        0.72352300       3.54619400      -1.55146500
