12
Properties=species:S:1:pos:R:3 pbc="F F F"
C       -2.84765000       0.21475900      -0.67085700
C       -1.39216800       0.20490300      -0.62887300
C       -0.17864200       0.18364200      -0.55924500
C        1.26491100       0.19346700      -0.57190900
N        2.03945200      -0.14022300       0.42360600
N        1.44572600      -0.60384800       1.58091700
H       -3.21383800       1.00445200      -1.32958700
H       -3.26439400       0.38246500       0.32424500
H       -3.23218900      -0.73791700      -1.04106700
H        1.74851000       0.51698600      -1.50046700
H        2.01669300      -0.42210500       2.40583300
H        0.47026700      -0.31602000       1.69468500
