20
Properties=species:S:1:pos:R:3 pbc="F F F"
C       -0.95916100      -2.27319100      -0.92704400
C       -1.26818600      -1.53476100       0.37004600
C       -0.76476300      -0.08458900       0.39661100
C        0.76440100       0.03298600       0.40494000
C        1.26780300       1.47450000       0.56534000
C        0.95983900       2.37328200      -0.62652000
H       -1.37291400      -3.27943900      -0.90422500
H        0.11309100      -2.35776300      -1.09011000
H       -1.38593600      -1.75463600      -1.78332100
H       -0.83769700      -2.08605700       1.21321300
H       -2.35245500      -1.53250200       0.52769100
H       -1.16528000       0.40922700       1.28923700
H       -1.17296500       0.45691400      -0.46285500
H        1.17340300      -0.39362400      -0.51660900
H        1.16404800      -0.57150400       1.22708900
H        2.35192700       1.45188600       0.72230800
H        0.83661000       1.91300200       1.47196000
H        1.38740500       1.96882300      -1.54185300
H        1.37344100       3.36828600      -0.47444600
H       -0.11228000       2.47803100      -0.77831700
