16
Properties=species:S:1:pos:R:3 pbc="F F F"
C       -1.79151200       0.57928800       0.91023300
C       -0.28616100       0.41125300       0.86605700
C        0.53800400       1.22465900      -0.12050500
C        0.42298600      -0.26963500      -0.27895700
C        1.61899700      -1.15875900      -0.01245300
O       -0.34552600      -0.75565500      -1.36049600
H       -2.07028600       1.42479000       1.53829500
H       -2.27361500      -0.30891500       1.31757200
H       -2.20476000       0.75804700      -0.08128900
H        0.17083400       0.28843800       1.84914000
H        1.47000500       1.65211600       0.23603500
H       -0.01151600       1.85510100      -0.81182700
H        2.20973900      -0.78021600       0.81872300
H        2.26199600      -1.21596700      -0.88968400
H        1.30239800      -2.17271900       0.22779600
H       -1.10447400      -0.17626600      -1.50704000
