15
Properties=species:S:1:pos:R:3 pbc="F F F"
C       -0.61049500       0.24897000      -2.85012200
C       -0.91204400       0.02496500      -1.70189500
C       -1.29248000      -0.25321100      -0.31609400
C       -0.76380300       0.79385900       0.67657900
C        0.76927600       0.80330500       0.78027700
C        1.30835600      -0.43152600       1.35232200
C        1.75250900      -1.44530900       1.83661100
H       -0.34264500       0.43907300      -3.86023200
H       -0.92132300      -1.24716300      -0.03716300
H       -2.38785300      -0.29655300      -0.25264100
H       -1.19566800       0.59608700       1.66254100
H       -1.10535600       1.78927200       0.37648700
H        1.08952600       1.64984000       1.40210300
H        1.20643700       0.95997500      -0.21356600
H        2.14896300      -2.33684700       2.25640300
