16
Properties=species:S:1:pos:R:3 pbc="F F F"
C        0.95934100       0.33756000       2.25165100
C        0.01495100      -0.63493300       1.55582900
C        0.34048100      -0.85441900       0.06959600
C        0.06848900       0.37012700      -0.79478800
C       -0.31502400       0.24671400      -2.21744700
O       -1.27975200       0.56984200      -1.22266800
H        0.70539200       0.43072400       3.30539900
H        0.90592100       1.32969100       1.80825600
H        1.99131000      -0.00238600       2.18464400
H       -1.01438200      -0.27755800       1.64856600
H        0.05547300      -1.60120900       2.06999200
H       -0.25465500      -1.69165500      -0.30775400
H        1.39354800      -1.14631300      -0.03528900
H        0.57204600       1.29997600      -0.48008600
H       -0.43482800      -0.74441200      -2.67423800
H       -0.09123900       1.05411500      -2.92719800
