19
Properties=species:S:1:pos:R:3 pbc="F F F"
C        2.29668900      -1.59132800      -0.10463000
C        1.21222100      -1.53424300       0.92842300
C        0.11071300      -0.75556600       0.96545700
C       -0.37210500       0.27736200       0.03506100
C       -1.59234300       0.81733100       0.28428400
C       -2.30757500       1.86410600      -0.50843200
C        0.48330500       0.70283100      -1.12866300
H        2.89618600      -2.48872700       0.03113000
H        2.97296200      -0.73697800      -0.02718400
H        1.90385400      -1.60490200      -1.11979600
H        1.34206500      -2.22432700       1.76222800
H       -0.54836300      -0.90868000       1.82226100
H       -2.14115800       0.43936600       1.14751100
H       -1.64901700       2.41068000      -1.17911000
H       -2.78909000       2.58330000       0.15471500
H       -3.10047800       1.41932500      -1.11590100
H        1.50582300       0.90013200      -0.81101300
H        0.09970600       1.60305000      -1.60121700
H        0.52207700      -0.07519800      -1.89262200
