23
Properties=species:S:1:pos:R:3 pbc="F F F"
C       -1.28311000       2.67180100       0.93628300
C       -1.70246500       1.68908800      -0.15051000
C       -1.16961400       0.26379700       0.05875700
C        0.34784200       0.14551300      -0.12708600
C        0.89206300      -1.28476900       0.09656900
C        0.40917000      -2.26780000      -0.97844200
C        2.42590200      -1.26957200       0.15972100
H       -1.71692100       3.65324700       0.75583800
H       -0.20213600       2.78752100       0.97232500
H       -1.61422700       2.33429200       1.91635800
H       -1.37289400       2.06218200      -1.12612000
H       -2.79656700       1.65135500      -0.19103300
H       -1.67692600      -0.40340600      -0.64631000
H       -1.44326900      -0.08410800       1.06100500
H        0.85002200       0.82128200       0.57328900
H        0.62200800       0.48784200      -1.13088200
H        0.51947400      -1.64095200       1.07104700
H        0.73681900      -1.95669000      -1.96851100
H       -0.67612600      -2.33940900      -0.99140700
H        0.80661100      -3.26386200      -0.79356700
H        2.85274400      -0.92259200      -0.77940500
H        2.81643100      -2.26625600       0.35529600
H        2.77623300      -0.60879700       0.95031500
