17
Properties=species:S:1:pos:R:3 pbc="F F F"
C        0.76229100       1.91719000       1.62408700
C       -0.22168500       0.80524400       1.27449300
C       -0.06819600       0.31594000      -0.16086800
N        0.98109400      -0.66504500      -0.47227500
C       -0.42608300      -1.08625900      -0.53768400
C       -0.98851500      -1.42919600      -1.90103500
H        0.62587900       2.24880000       2.65139700
H        0.62542400       2.77784200       0.97246700
H        1.78900700       1.57579400       1.51284800
H       -1.24589400       1.16685900       1.42905400
H       -0.08489700      -0.03546900       1.96367400
H       -0.17947300       1.09296800      -0.92656100
H        1.41692400      -1.00649000       0.38781600
H       -0.75948200      -1.74400600       0.27637700
H       -0.61490400      -0.74408300      -2.65793900
H       -2.07705400      -1.37403900      -1.90042700
H       -0.71005200      -2.44037500      -2.19674000
