15
Properties=species:S:1:pos:R:3 pbc="F F F"
O       -2.00505300       0.07817200      -0.58226500
C       -0.58335300       0.06511000      -0.66044500
C        0.04624600      -1.21378500      -0.05329600
N        1.18974100      -0.75809300       0.75537000
C        1.38900400       0.68725100       0.56883100
C        0.02394000       1.21948000       0.14402000
H       -2.37119200      -0.67147500      -1.06940800
H       -0.28509100       0.15026100      -1.73382500
H        0.36429100      -1.92446100      -0.83596900
H       -0.68808000      -1.75251200       0.57232800
H        2.03782100      -1.29345000       0.57046400
H        2.14956500       0.89782400      -0.21087500
H        1.75744200       1.15801700       1.49509300
H        0.09341900       2.14753900      -0.42950800
H       -0.60096500       1.42119100       1.01756700
