17
Properties=species:S:1:pos:R:3 pbc="F F F"
C       -3.47584300       0.00796900      -0.15501700
C       -1.98766500      -0.09193100      -0.12467700
C       -1.17388800       0.90919300       0.27366100
C        0.28010000       0.86360800       0.32193400
C        1.06398900      -0.19077500      -0.02066500
C        2.51278400      -0.15552400       0.05686100
C        3.30932900      -1.18740200      -0.27305300
H       -3.85761700      -0.16205400      -1.16395400
H       -3.81998300       0.98424400       0.17933800
H       -3.93112500      -0.75284000       0.48279900
H       -1.56041300      -1.04071000      -0.44916500
H       -1.62807400       1.84732700       0.59249200
H        0.76989000       1.77391400       0.66939700
H        0.60851400      -1.11631700      -0.37169700
H        2.96219700       0.77425700       0.40764000
H        2.89723300      -2.12624400      -0.62415700
H        4.38654100      -1.11240500      -0.19696300
