17
Properties=species:S:1:pos:R:3 pbc="F F F"
C        1.84327800      -1.26752000       0.07141300
C        1.64759500      -1.18689000       1.54564700
N        1.06012200      -0.18188100       0.66034200
C       -0.40144000      -0.24782000       0.47188000
C       -0.80982300       0.35688200      -0.86539400
C       -2.17729600       0.91941100      -1.05208300
N       -1.01601800       1.80468100      -0.97278100
H        1.30426300      -2.04389200      -0.47803100
H        2.79923500      -0.97584300      -0.36684100
H        2.46043400      -0.83673700       2.18426800
H        0.97169100      -1.90593200       2.01599000
H       -0.88575700       0.30385500       1.29281400
H       -0.76798900      -1.29485600       0.53565700
H       -0.31791500      -0.08508100      -1.74033800
H       -2.86635100       0.91946800      -0.20412600
H       -2.66054900       0.86897100      -2.02917600
H       -0.95967400       2.24607300      -0.05192200
