9
Properties=species:S:1:pos:R:3 pbc="F F F"
C       -0.70690500       1.18436800       0.56170100
N       -1.36255300      -0.11350400       0.52595400
C        0.10103000      -0.07308900       0.63241000
C        0.88475800      -0.48582500      -0.52044200
N        1.50790100      -0.82021000      -1.42996900
H       -0.85922700       1.76370100       1.47342700
H       -0.68472200       1.76789200      -0.35987400
H       -1.65318600      -0.35400600      -0.42500300
H        0.50639500      -0.39431000       1.59753300
