15
Properties=species:S:1:pos:R:3 pbc="F F F"
C       -1.29389500       0.36598600       1.33548000
C        0.21330300       0.32905700       1.20583500
N        0.84026400       1.07245500       0.10287800
C        0.92366700      -0.39684700       0.10374500
C        0.19624400      -1.11423900      -1.03487200
O       -0.70323600      -0.24581600      -1.69030600
H       -1.61963200       1.29702700       1.79867500
H       -1.64315800      -0.45338800       1.96279500
H       -1.77475900       0.28011300       0.36513100
H        0.75083000       0.38528200       2.16243900
H        1.72343500       1.49328700       0.40006800
H        1.90874300      -0.81177600       0.35620800
H       -0.35966200      -1.99381600      -0.65919900
H        0.94693700      -1.50537900      -1.75738800
H       -0.42460500       0.66424800      -1.48755700
