19
Properties=species:S:1:pos:R:3 pbc="F F F"
C       -1.96560100       0.02401600       0.02973600
C       -1.02868200       1.25906600       0.29153700
C        0.29546900       0.71093800      -0.24316300
C        0.28915600      -0.71709700       0.23556900
C       -1.06718000      -1.23749600      -0.24413700
C        1.78979200      -0.78956800      -0.13809000
C        1.81160200       0.74931000       0.06737100
H       -2.62138900       0.21706200      -0.82417600
H       -2.62085300      -0.14937900       0.88816600
H       -0.98183800       1.48581900       1.36104300
H       -1.38729500       2.15577800      -0.22244800
H        0.21407200       0.69476200      -1.34127000
H        0.25396500      -0.69953900       1.33614000
H       -1.42808000      -2.11682600       0.29758400
H       -1.06493300      -1.48316800      -1.31041100
H        1.97422000      -1.06410800      -1.17942700
H        2.43064600      -1.39472200       0.51025900
H        2.43784600       1.33990000      -0.60807700
H        2.04630300       1.01940700       1.09967700
