14
Properties=species:S:1:pos:R:3 pbc="F F F"
C       -0.84571000       0.75155300      -1.67616800
C       -1.09497000       0.57169500      -0.37329700
C       -0.30828100      -0.26519200       0.55544100
C       -0.91319300      -0.78847800       1.64706100
C        1.12310700      -0.54543800       0.32248600
C        1.97696300       0.22331300      -0.36455200
H       -1.50679800       1.35321200      -2.28851600
H       -0.00004200       0.28821700      -2.16950400
H       -1.99277900       1.02169700       0.05278300
H       -1.95610500      -0.58913000       1.86192100
H       -0.37161300      -1.42237100       2.33872200
H        1.50975900      -1.43453100       0.82270300
H        1.66726900       1.14661700      -0.83893200
H        3.02281200      -0.04843000      -0.44499600
