17
Properties=species:S:1:pos:R:3 pbc="F F F"
C       -2.57080000       0.17132100       0.10106900
C       -1.07893300       0.14725300       0.03526100
C       -0.28633800      -0.94700100       0.05901200
C        1.12462000      -0.57941400      -0.01698200
C        2.17576900      -1.42144200      -0.01170900
C        1.19925500       0.93180100      -0.10119900
C       -0.26206700       1.41236300      -0.06552900
H       -2.98384400      -0.83448700       0.12538700
H       -2.99375500       0.69512500      -0.75810800
H       -2.91432000       0.70161300       0.99172500
H       -0.63988200      -1.97059800       0.12586900
H        2.03054800      -2.49215700       0.05335800
H        3.19208900      -1.05391900      -0.07140300
H        1.70633400       1.25237000      -1.01737800
H        1.78065300       1.34705700       0.72883800
H       -0.52993800       1.98644000      -0.96179800
H       -0.45692500       2.07926600       0.78396500
