19
Properties=species:S:1:pos:R:3 pbc="F F F"
C       -1.63538900       1.23954700       1.18888100
C       -0.62619400       0.44912800       1.55402900
C        0.34825200      -0.25365300       0.62779600
C        0.15302900       0.09563000      -0.85021300
C        0.58405700      -0.87659400      -1.90568500
C       -0.87264000      -0.62551300      -1.66974300
C        1.79644500       0.02131100       1.07327100
H       -2.28628600       1.68907400       1.92936600
H       -1.84368600       1.45921800       0.14873900
H       -0.46171800       0.26284600       2.61690400
H        0.17366900      -1.33898300       0.74327000
H        0.30044100       1.15017900      -1.08817000
H        0.98842600      -1.83225400      -1.58676300
H        1.02563000      -0.48529900      -2.81657000
H       -1.44796100      -1.41118600      -1.19099100
H       -1.41891500      -0.06304700      -2.42032900
H        2.03835300       1.07848800       0.98726000
H        2.50000300      -0.53472900       0.45710200
H        1.94667400      -0.27343400       2.11016800
