12
Properties=species:S:1:pos:R:3 pbc="F F F"
C       -2.45665400      -0.39602900       0.20048900
N       -1.00937000      -0.45406100       0.11331800
N       -0.30062100       0.29908900       0.99786600
C        0.94831800       0.58107100       0.71239200
C        1.62369900       0.21305900      -0.50441900
C        2.22611900      -0.07446200      -1.51938600
H       -2.89322800      -1.25519300      -0.31657400
H       -2.87873300       0.51693800      -0.25393300
H       -2.76622100      -0.42329200       1.24614100
H       -0.61789600      -0.51200300      -0.83555600
H        1.52276800       1.14429700       1.45303000
H        2.75435100      -0.32778300      -2.40585800
