16
Properties=species:S:1:pos:R:3 pbc="F F F"
N       -1.94769600      -0.56631600      -0.32155600
C       -0.51787400      -0.34605900      -0.54839800
C        0.41836100      -1.39626600       0.07944200
N        1.00374100      -0.37624800       0.98243400
C        0.14792100       0.69674300       0.38869100
C        0.91849800       1.83089400      -0.28015300
H       -2.27021900      -1.39063600      -0.82290200
H       -2.49131000       0.23563300      -0.63187300
H       -0.29557900      -0.16192700      -1.62560200
H        1.14479500      -1.84519000      -0.61643000
H       -0.08274300      -2.21218000       0.62172800
H        2.00206000      -0.22451600       0.82049000
H       -0.54762400       1.11472500       1.14031400
H        1.60379200       1.45364800      -1.03821100
H        1.50399700       2.38496300       0.45189000
H        0.23908500       2.53155500      -0.76304400
