12
Properties=species:S:1:pos:R:3 pbc="F F F"
C       -0.60779900       1.73526900       1.62630500
O       -1.33155900       0.88487800       0.74871900
C       -0.65545000       0.03128900      -0.02241200
C        0.69812800      -0.12993400      -0.07152900
C        1.28764900      -1.12383000      -0.98327900
O        0.64170900      -1.84297100      -1.72476400
H       -1.33441300       2.34437300       2.16955800
H        0.06849900       2.39152400       1.06140800
H       -0.01825900       1.14587400       2.34206000
H       -1.30989000      -0.57318900      -0.65774500
H        1.35923400       0.46355500       0.55390300
H        2.41846600      -1.18415600      -0.95534200
