12
Properties=species:S:1:pos:R:3 pbc="F F F"
C       -1.74588400       0.45781900      -0.57451100
C       -0.22375500       0.42369100      -0.54722500
C        0.32616900      -0.41270700       0.61586000
O        1.74461400      -0.43898100       0.60827700
H       -2.10688600       1.05509000      -1.40870400
H       -2.14425500       0.88779400       0.34247500
H       -2.15780100      -0.54453900      -0.67706000
H        0.16726100       1.44325400      -0.47716000
H        0.15073900       0.01669200      -1.49416500
H       -0.07533900      -1.44762100       0.56228700
H        0.00973900       0.00772500       1.58182000
H        2.06045300      -0.71936800      -0.26045300
