16
Properties=species:S:1:pos:R:3 pbc="F F F"
C       -1.43891700      -0.50471300       0.69086400
C        0.08784200      -0.42906500       0.61687300
C        0.61966400      -0.96657800      -0.72008200
O       -0.04584800      -1.53635500      -1.54491200
C        0.65004000       0.98498900       0.90119800
C        0.25844700       2.02597000      -0.13979000
H       -1.77298400      -1.52767200       0.53587400
H       -1.89848000       0.11403600      -0.07573200
H       -1.79780000      -0.16841100       1.66159100
H        0.50337300      -1.09651700       1.39302000
H        1.73507700      -0.80484000      -0.87799800
H        1.74321900       0.91942000       0.95248200
H        0.31210600       1.31026700       1.89031200
H        0.59836500       1.73532500      -1.13188700
H        0.70174400       2.99013400       0.09910500
H       -0.82029300       2.15548300      -0.18185300
