16
Properties=species:S:1:pos:R:3 pbc="F F F"
C        0.19453500      -1.35640600       1.86822300
O       -0.16997900      -1.44659800       0.50123600
C        0.58504700      -0.59610000      -0.37932400
C        0.04544500       0.84924300      -0.31393600
O       -1.37740000       0.78958900      -0.40045200
C        0.59498800       1.73716100      -1.42982600
H       -0.38963700      -2.09807600       2.42088000
H       -0.01662100      -0.35599800       2.28483100
H        1.26878700      -1.56688800       2.00878700
H        0.46097900      -1.01067600      -1.39103900
H        1.66063400      -0.64174100      -0.12147300
H        0.32936400       1.29602800       0.67124900
H       -1.64966800      -0.05990700      -0.01452100
H        0.34836300       1.33051800      -2.40854600
H        1.67835700       1.82429900      -1.36062300
H        0.16839300       2.73512200      -1.36664100
