17
Properties=species:S:1:pos:R:3 pbc="F F F"
C       -1.90269500       0.16761400      -0.15782700
C       -0.44044300       0.52012900      -0.08026700
C       -0.03546400       1.63056500       0.56317900
C        1.36446600       2.13230900       0.73870800
C        0.49648600      -0.43871300      -0.79965200
C        0.34877100      -1.82835400      -0.35945200
C        0.24733400      -2.97939400      -0.00610100
H       -2.51711300       0.90009300       0.36073400
H       -2.08843900      -0.81205600       0.28380000
H       -2.23640500       0.11446200      -1.19586300
H       -0.80395300       2.25501800       1.01969200
H        2.11350300       1.44739600       0.34979500
H        1.57871700       2.29998300       1.79517500
H        1.49515700       3.09271900       0.23562100
H        1.54268600      -0.13835300      -0.67298500
H        0.29136500      -0.39627900      -1.88101100
H        0.15375100      -3.98791800       0.31351800
