19
Properties=species:S:1:pos:R:3 pbc="F F F"
C        0.30884000       1.81766600       2.34514100
C        0.21600500       1.03255500       1.26026800
C       -0.70839300      -0.09215600       1.16778800
C       -0.87417800      -0.93189400       0.12597500
C       -0.15548800      -0.93806000      -1.21751500
C       -0.42883300       0.33409000      -2.03871000
C        1.35319800      -1.20568600      -1.07914300
H        1.00617900       2.64513300       2.38265700
H       -0.31059900       1.64785200       3.21848900
H        0.85682300       1.23799200       0.40479400
H       -1.32795200      -0.25776600       2.05044300
H       -1.62099000      -1.71761400       0.24791900
H       -0.57587800      -1.78105400      -1.78961300
H       -0.02035400       1.21955800      -1.55800800
H       -1.49809200       0.48628900      -2.16786500
H        0.02232800       0.25099400      -3.02594700
H        1.85821700      -0.40133200      -0.55029800
H        1.81159100      -1.29974500      -2.06188600
H        1.53181900      -2.12940000      -0.53351800
