13
Properties=species:S:1:pos:R:3 pbc="F F F"
O       -2.82737400      -0.41481900       0.38028300
C       -1.63992300      -0.43521900       0.07993900
N       -0.75868600       0.51918400       0.55247500
C        0.61659400       0.60895100       0.28741500
C        1.33791000      -0.22935600      -0.48320000
C        2.80738900      -0.05501500      -0.71041400
H       -1.18682900      -1.21692200      -0.58999700
H       -1.15758700       1.23159400       1.15879400
H        1.09616800       1.45700700       0.77730000
H        0.86241200      -1.07560400      -0.97292900
H        3.19017400       0.81332300      -0.17874600
H        3.02943000       0.07065400      -1.77207200
H        3.36420700      -0.93195800      -0.37437900
