19
Properties=species:S:1:pos:R:3 pbc="F F F"
C       -2.59538300      -0.14057000      -1.06074900
C       -1.78599700      -0.38031800       0.21481000
C       -0.95353500       0.80968800       0.60986800
C        0.38537400       0.92566000       0.55649700
C        1.36784000      -0.06046900       0.05768800
C        1.16220700      -0.83695700      -1.02230200
C        2.67419400      -0.10768800       0.80824700
H       -3.21946100      -1.00279100      -1.28714900
H       -1.94074000       0.03534000      -1.91163600
H       -3.24417200       0.72648800      -0.95437100
H       -1.15600200      -1.26514100       0.09075700
H       -2.48323100      -0.60085100       1.03370600
H       -1.51565100       1.65174700       1.01703800
H        0.82526200       1.83806300       0.96391400
H        0.25217300      -0.77329300      -1.60377900
H        1.92439800      -1.52858800      -1.36009600
H        2.51365300      -0.37913200       1.85203000
H        3.15603500       0.87079500       0.80519100
H        3.35954100      -0.82871500       0.37003800
