16
Properties=species:S:1:pos:R:3 pbc="F F F"
C       -1.32799400      -0.36541800      -0.90129900
C        0.17347500      -0.12306300      -0.69993800
C        0.52082200       1.18762400      -0.01620700
C       -0.28217200       2.24465600       0.10706800
O        0.80468500      -1.22955900      -0.01208200
C        0.39197900      -1.43095400       1.32830700
H       -1.74101000       0.35648300      -1.60292400
H       -1.88166900      -0.27911800       0.03106600
H       -1.49705200      -1.36102600      -1.30453700
H        0.65948500      -0.11576800      -1.69978000
H        1.54164700       1.25230700       0.36210700
H       -1.30452000       2.23514000      -0.25338600
H        0.06255100       3.15783800       0.57775400
H        1.01588800      -2.22424200       1.75259700
H       -0.66506200      -1.74500100       1.39151000
H        0.51559900      -0.51721300       1.93466400
