12
Properties=species:S:1:pos:R:3 pbc="F F F"
C       -0.94427400      -1.58138800       1.63131100
N       -1.50067400      -0.65258000       0.67337100
C       -0.73628500       0.14047600      -0.14559300
C        0.62781900       0.16099300      -0.16536600
C        1.35200300       1.01712400      -1.04895300
N        1.95901200       1.70345200      -1.75725300
H       -1.75706100      -2.08591200       2.15211700
H       -0.31868800      -1.07067200       2.37648200
H       -0.31901200      -2.34238300       1.14397000
H       -2.50879500      -0.58845100       0.60377500
H       -1.31145900       0.78410200      -0.81096700
H        1.21107700      -0.47602100       0.49340300
