15
Properties=species:S:1:pos:R:3 pbc="F F F"
C        2.06086000      -0.62319000       1.42128400
C        1.46938100      -0.70114300       0.36336800
C        0.89959300      -0.88614300      -0.93555000
C       -0.27197400      -0.39028300      -1.38729100
C       -1.25364600       0.45892500      -0.66592100
C       -1.52859400       0.28925200       0.80718700
C       -0.82670100       1.51009100       0.32773500
H        2.52024500      -0.51256600       2.37284300
H        1.50104800      -1.49821300      -1.60998300
H       -0.54697200      -0.63611900      -2.41306900
H       -2.12220000       0.72076500      -1.27144500
H       -0.94600000      -0.45294400       1.34147100
H       -2.55927400       0.38588500       1.13503300
H        0.23363500       1.60005600       0.53573900
H       -1.37400100       2.44808500       0.32453500
