17
Properties=species:S:1:pos:R:3 pbc="F F F"
C       -0.43069300      -0.18693000      -2.02422700
C       -0.52400900      -0.35895400      -0.51067400
N        0.38408400      -1.39838400       0.05705400
C        1.12697700      -0.38014100       0.83326300
C        0.16795500       0.72975100       0.35544800
C       -0.68873100       1.40197600       1.42149200
H       -0.77555100      -1.08332700      -2.53751900
H        0.59362700       0.00492000      -2.33993600
H       -1.04554300       0.64680900      -2.35883800
H       -1.57915800      -0.54540800      -0.22869700
H        0.95666600      -1.86233100      -0.65183000
H        2.17316700      -0.25266300       0.51221800
H        1.12939400      -0.57809200       1.91719700
H        0.67314000       1.49829300      -0.24745300
H       -1.20108900       0.66404700       2.03563500
H       -1.44391400       2.04310100       0.96844000
H       -0.07832500       2.01912800       2.07958300
