17
Properties=species:S:1:pos:R:3 pbc="F F F"
C       -0.77080200       1.19287300       1.01608300
C       -0.95589300      -0.15736300       0.38472200
C       -1.75192300      -1.08747500       0.93234800
C       -0.21103100      -0.42563200      -0.90697700
C        1.31761000      -0.52771200      -0.74080200
N        1.93912500       0.78066400      -0.52946300
H       -1.33104400       1.27734000       1.94424700
H       -1.10310200       1.98261500       0.34052600
H        0.28340800       1.37695800       1.22320100
H       -2.28724700      -0.89633500       1.85407000
H       -1.88434700      -2.05772300       0.46956600
H       -0.43352100       0.36830100      -1.63098000
H       -0.57458800      -1.36137400      -1.34270000
H        1.73095400      -1.03300800      -1.64027300
H        1.55986800      -1.17443100       0.11333800
H        1.75242600       1.39914800      -1.31484300
H        2.94555600       0.68570600      -0.42216000
