16
Properties=species:S:1:pos:R:3 pbc="F F F"
C       -0.53649400       1.94330100      -0.25084700
C       -0.84713200       0.69317000       0.57171900
C       -0.36586700      -0.58055300      -0.09575600
C       -1.23503400      -1.40725200      -0.71052000
C        1.06638800      -0.91507000      -0.07510800
C        2.02889900      -0.23091900       0.55894900
H       -0.89240000       2.83588700       0.26008400
H       -1.02003000       1.89712600      -1.22410300
H        0.53330300       2.05045600      -0.41399900
H       -1.92760200       0.62995000       0.73228700
H       -0.38660100       0.78829200       1.56145200
H       -2.29584700      -1.19054600      -0.73922400
H       -0.89725900      -2.31663300      -1.19379800
H        1.34254900      -1.81505000      -0.62586300
H        1.81935300       0.66509600       1.13087900
H        3.05997700      -0.56063400       0.52166400
