21
Properties=species:S:1:pos:R:3 pbc="F F F"
C       -2.51584400      -0.44770600      -0.95085500
C       -1.59531200       0.50427100      -0.78881900
C       -0.96323500       0.86207800       0.52856100
C        0.54261300       1.16747400       0.45491600
C        1.48734100      -0.04617700       0.27627000
C        1.37468300      -1.04547000       1.43501800
C        1.30633400      -0.74474800      -1.07614700
H       -2.96294200      -0.63878800      -1.91863000
H       -2.84323300      -1.06571700      -0.12285500
H       -1.29327700       1.10647500      -1.64682500
H       -1.16303100       0.07976900       1.26656600
H       -1.46297700       1.76680700       0.90468600
H        0.83042100       1.68528100       1.37714300
H        0.72200400       1.87570600      -0.36202000
H        2.51188700       0.36331900       0.29825000
H        0.40213100      -1.53248300       1.44782700
H        1.51521400      -0.54856200       2.39308500
H        2.13133900      -1.82220400       1.34446800
H        0.32525000      -1.20597500      -1.15412900
H        2.05436000      -1.52477500      -1.20524100
H        1.41337300      -0.03718500      -1.89598800
