21
Properties=species:S:1:pos:R:3 pbc="F F F"
C       -0.80696600       0.12105900      -1.86904600
C       -0.73254500      -0.01644800      -0.35327000
C        0.11448000      -1.16883400       0.26545100
C        1.03914500      -1.93652300      -0.67325700
C        0.81522500      -0.14196200       1.18175900
C        0.14121000       1.01315300       0.41260500
C       -0.58030700       2.07563700       1.23316100
H       -1.30934900      -0.73561900      -2.31576700
H        0.18350900       0.19866700      -2.31325300
H       -1.36402800       1.01550000      -2.14405400
H       -1.75448700      -0.04140300       0.05248600
H       -0.50130100      -1.89217300       0.82116700
H        1.69716100      -1.26588700      -1.22168000
H        0.46926800      -2.51581200      -1.39768500
H        1.66448200      -2.62826000      -0.11070000
H        1.90785400      -0.15073900       1.15294200
H        0.50246900      -0.21158300       2.22659300
H        0.85590000       1.50198000      -0.26451900
H       -1.29146800       1.62606900       1.92395600
H       -1.12806500       2.76063800       0.58795500
H        0.12660900       2.66212600       1.81813900
