15
Properties=species:S:1:pos:R:3 pbc="F F F"
C       -1.64413000      -0.18495000       0.34384800
C       -0.12896200      -0.22424700       0.46568100
O        0.31232900      -0.25970700       1.81577500
C        0.69783600      -1.03095600      -0.52358700
C        0.78041700       0.49408000      -0.47005900
N        0.25845100       1.31092100      -1.55589200
H       -2.09612600      -1.02889700       0.86653300
H       -1.96319300      -0.23098700      -0.69483800
H       -2.04745800       0.72669000       0.78243300
H       -0.10529000      -0.99977300       2.27702600
H        0.18641500      -1.47936100      -1.36931200
H        1.54062300      -1.59605700      -0.14079900
H        1.69360100       0.90115200      -0.03162500
H       -0.64634600       0.97395300      -1.87273700
H        0.89902200       1.31093500      -2.34693600
