23
Properties=species:S:1:pos:R:3 pbc="F F F"
C        0.87026400       0.85742700      -2.69264300
C        0.36549800       0.90272600      -1.25494000
C        0.76590600      -0.34635700      -0.45991200
C        0.29777400      -0.37115300       1.01480900
C       -1.23943200      -0.33200500       1.17930000
C       -1.96246100      -1.50548400       0.52976700
C        0.95067500       0.74669100       1.83990400
H        0.57513900       1.75250700      -3.23674900
H        0.46822900      -0.00420300      -3.22223400
H        1.95589600       0.78791700      -2.72534800
H       -0.72413700       1.00662200      -1.25845300
H        0.75901800       1.79759700      -0.76231200
H        1.85737800      -0.44246900      -0.47616400
H        0.37829800      -1.23386100      -0.97119300
H        0.64561600      -1.33111600       1.43294400
H       -1.46791700      -0.32233300       2.25082300
H       -1.63328500       0.60758600       0.77814600
H       -1.57708500      -2.45566100       0.89528800
H       -1.84899300      -1.49406600      -0.55202300
H       -3.02724800      -1.46925100       0.75158800
H        0.61808200       1.73012800       1.51356100
H        2.03475900       0.71424800       1.75083900
H        0.69690600       0.64528000       2.89357800
