16
Properties=species:S:1:pos:R:3 pbc="F F F"
C       -1.00348500      -1.86146200       1.43267900
C       -1.32257000      -1.34116300       0.03652100
C       -0.69510700       0.02599800      -0.25722500
C        0.82030900      -0.01515100      -0.34862200
N        1.60027500       1.00690800      -0.51643500
N        1.02352000       2.26999400      -0.66064400
H       -1.46091900      -2.83493800       1.59634400
H       -1.37694100      -1.18222600       2.19651000
H        0.06977000      -1.96597100       1.57725900
H       -2.40937100      -1.26892600      -0.08075300
H       -0.98037100      -2.06664800      -0.70929500
H       -1.00273000       0.74435300       0.51639100
H       -1.10334500       0.41714400      -1.19904500
H        1.30826000      -0.99488400      -0.28355200
H        1.67304700       2.99971200      -0.36533200
H        0.12115600       2.36473300      -0.18909000
