13
Properties=species:S:1:pos:R:3 pbc="F F F"
N       -2.34989200       0.00211900       0.04933500
C       -1.20038300       0.01984400       0.00888000
C        0.29746100       0.02475600      -0.00347700
O        0.75041100       0.76369000       1.13755800
C        0.81188900      -1.43176200       0.08488100
C        0.82284300       0.73686300      -1.25944700
H        0.35568400       0.40791500       1.94614600
H        0.44998600      -1.91759000       0.98875300
H        1.89874700      -1.44257800       0.10606700
H        0.47932900      -2.01583700      -0.77002600
H        0.46965700       1.76415400      -1.28996100
H        0.49187600       0.23025200      -2.16289700
H        1.90983000       0.75112700      -1.24891700
