12
Properties=species:S:1:pos:R:3 pbc="F F F"
O       -1.63458900      -0.84051000      -0.64338600
C       -0.40681900      -0.80623700      -0.61787700
N        0.31284400       0.12364200       0.09450700
C       -0.37731500       1.13884600       0.87293200
C        1.76126200       0.13220200       0.10074800
H        0.24344900      -1.54112100      -1.18168800
H       -1.44982400       0.98628200       0.75605200
H       -0.11379700       2.14937700       0.53103500
H       -0.11367000       1.07107600       1.93754800
H        2.13763200      -0.68107300      -0.52270900
H        2.16026200       0.00424900       1.11755000
H        2.15998400       1.08092900      -0.28706800
