21
Properties=species:S:1:pos:R:3 pbc="F F F"
C       -1.85353300      -0.41181400       0.13058400
C       -0.33535700      -0.33730500       0.36191100
C        0.14965000      -1.59450400       1.05712200
C        0.75279900      -1.61404700       2.24541900
C        0.44335400      -0.14081100      -0.96555100
C        0.20780700       1.20828300      -1.65958100
C        0.74668800       2.40485600      -0.88433100
H       -2.37960600      -0.54840800       1.07281900
H       -2.10935900      -1.24653800      -0.51953100
H       -2.22523300       0.50045900      -0.33100300
H       -0.12748700       0.52055600       1.01884000
H       -0.01649200      -2.53290600       0.52609800
H        0.93421600      -0.70246700       2.80366600
H        1.08183300      -2.54321000       2.69503100
H        0.17447200      -0.94711000      -1.65708900
H        1.51352600      -0.25369900      -0.76363200
H       -0.86076600       1.34944600      -1.85207900
H        0.69121800       1.17660700      -2.64230800
H        0.24026500       2.52087700       0.07148400
H        0.60395700       3.32353300      -1.44959400
H        1.81100900       2.29491000      -0.68613300
