5
Properties=species:S:1:pos:R:3 pbc="F F F"
C       -1.85436600       0.00000000       0.00000000
C       -0.64186200       0.00000000       0.00000000
C        0.75339500       0.00000000       0.00000000
N        1.91075400       0.00000000       0.00000000
H       -2.91827700       0.00000000       0.00000000
