21
Properties=species:S:1:pos:R:3 pbc="F F F"
C       -2.31348000       0.43618100      -1.99828400
C       -1.34586700      -0.32701200      -1.09884900
C       -0.78118900       0.53165900       0.00592700
C        0.45855200       0.46099500       0.52545700
C        1.52492500      -0.51184000       0.05437100
C        1.58352500      -1.77998900       0.90664600
C        0.86769600       1.37074000       1.65527600
H       -2.72799100      -0.21730100      -2.76340300
H       -1.81463700       1.26326800      -2.49856600
H       -3.14077000       0.84696600      -1.42280400
H       -0.54213800      -0.75523300      -1.70677500
H       -1.87654300      -1.18381900      -0.65840400
H       -1.47013600       1.26438300       0.42684400
H        2.50184400      -0.01595400       0.08961800
H        1.35401700      -0.79081800      -0.99016900
H        1.78151900      -1.54077000       1.94959500
H        2.37346400      -2.44263500       0.55781300
H        0.64269800      -2.32417500       0.86199700
H        0.05003900       2.01665500       1.96698900
H        1.70867100       2.00240600       1.36287000
H        1.19499700       0.79262500       2.52112300
