17
Properties=species:S:1:pos:R:3 pbc="F F F"
C       -1.94772900       1.00198400       0.32774500
C       -1.98587200      -0.23264500      -0.19273800
C       -0.98280300      -1.28008200       0.01817000
C        0.35191000      -1.15524700       0.18309900
C        1.20225100       0.05081200       0.04817900
C        2.21189600       0.26223000       0.91361100
C        1.00457600       0.95401200      -1.14193100
H       -2.75629400       1.70312500       0.15951400
H       -1.12071600       1.32912200       0.94614600
H       -2.86797600      -0.53670000      -0.75884900
H       -1.39616800      -2.28845500       0.08502800
H        0.89713100      -2.06596000       0.43940600
H        2.38247900      -0.40348100       1.75065400
H        2.86173100       1.12291800       0.81736200
H       -0.02570900       1.28940600      -1.23660700
H        1.25015600       0.41696000      -2.05930500
H        1.64998700       1.82667900      -1.08016200
