17
Properties=species:S:1:pos:R:3 pbc="F F F"
C       -1.91853800       0.97749000      -0.38795500
C       -1.98329500      -0.21886800       0.21423400
C       -0.98350000      -1.28411300       0.11367000
C        0.35271100      -1.17843700      -0.06183000
C        1.19543900       0.03609600      -0.05776900
C        2.23503900       0.13405600      -0.90985600
C        0.95744500       1.10472100       0.98410000
H       -2.72644600       1.69310100      -0.29378900
H       -1.06738700       1.25925500      -0.99571200
H       -2.88631300      -0.47754900       0.76980200
H       -1.39718200      -2.29353000       0.15072200
H        0.89678400      -2.11018900      -0.22819700
H        2.43540700      -0.63988900      -1.64034800
H        2.87748400       1.00559100      -0.91321300
H       -0.00596300       0.99284400       1.47069800
H        1.01676500       2.10342000       0.55529200
H        1.72503700       1.04127500       1.75719100
