18
Properties=species:S:1:pos:R:3 pbc="F F F"
C       -1.93168000      -0.61691500      -1.74865700
C       -1.21285400       0.29978200      -1.09956600
C       -0.75363200       0.17220700       0.32598600
C        0.76593900       0.41823600       0.49618000
C        1.14472300       0.45879900       1.98173800
C        1.58869400      -0.63466600      -0.25559900
H       -2.24673600      -0.46164900      -2.77326900
H       -2.22357100      -1.54694400      -1.27462900
H       -0.93512400       1.22205900      -1.61227800
H       -1.01901800      -0.81351200       0.72004400
H       -1.29237600       0.90894700       0.93771100
H        0.99580900       1.40447400       0.06066100
H        0.92964200      -0.49132500       2.46699900
H        0.58915300       1.23486600       2.50514400
H        2.20624500       0.66344600       2.10522300
H        1.40147000      -1.63058000       0.14077300
H        2.65406900      -0.43263100      -0.16409200
H        1.33330200      -0.64180100      -1.31277500
