19
Properties=species:S:1:pos:R:3 pbc="F F F"
C       -3.21465200      -0.31233800       0.10198400
C       -1.87409000      -0.50322700      -0.60067700
C       -1.07481900       0.77196700      -0.68257400
C        0.25592700       0.88952600      -0.58024300
C        1.24039100      -0.23286900      -0.35989200
C        2.40527900       0.17786500       0.50126700
C        2.86217900      -0.52645800       1.53663000
H       -3.77957700      -1.24215100       0.11651200
H       -3.81744200       0.43931100      -0.40382700
H       -3.07468300       0.01095100       1.13093500
H       -2.05781900      -0.87706500      -1.61832200
H       -1.29935400      -1.28504200      -0.09348300
H       -1.65521200       1.67798300      -0.85894700
H        0.69351700       1.88365200      -0.67616900
H        1.63490500      -0.54826600      -1.34105500
H        0.74770000      -1.11321400       0.06366300
H        2.89621400       1.11342300       0.22987100
H        2.39536300      -1.45682500       1.83881600
H        3.71509900      -0.18955400       2.11303900
