17
Properties=species:S:1:pos:R:3 pbc="F F F"
C       -1.60779600       1.38024800       0.83723400
N       -1.70442900       0.40101700      -0.24258600
C       -1.10600400      -0.90529000       0.06569300
C        0.40858000      -0.97695400       0.04542000
C        1.23688100      -0.02730200      -0.40541400
C        2.72779400      -0.15501800      -0.42722900
H       -2.09431700       2.30954900       0.52984800
H       -0.57024300       1.62069500       1.12745700
H       -2.12001500       1.00583200       1.72807000
H       -1.30066400       0.78039500      -1.10173600
H       -1.49777200      -1.65087800      -0.65142200
H       -1.46819700      -1.22920600       1.05323800
H        0.83392300      -1.91157600       0.41469900
H        0.83093100       0.91046400      -0.78517900
H        3.05287000      -1.11790000      -0.03998300
H        3.19491200       0.62879300       0.17156200
H        3.11285100      -0.04739100      -1.44267100
