14
Properties=species:S:1:pos:R:3 pbc="F F F"
O       -1.00895300      -0.96054300      -1.28856200
C       -1.07097800      -1.13161400       0.11384600
C       -0.15337600      -0.10774400       0.79285200
C        1.34740700      -0.15529700       0.47633700
C        1.15977600       1.23449100      -0.11641400
O       -0.26320000       1.19585100       0.13857900
H       -0.93049400      -0.00431800      -1.44559200
H       -0.76612400      -2.16157300       0.36155500
H       -2.11466900      -1.00248400       0.47344500
H       -0.38422200      -0.01775400       1.87571100
H        1.63495300      -0.92601800      -0.24279500
H        2.01284700      -0.21937200       1.34163300
H        1.38131300       1.34713600      -1.19281400
H        1.64664500       2.06290000       0.42899100
