16
Properties=species:S:1:pos:R:3 pbc="F F F"
O       -0.92661900       0.84145400      -1.69803300
C       -1.33216400      -0.35439700      -1.03906900
C       -0.81995100      -0.36621500       0.40030200
C        0.72627400      -0.36694300       0.49688100
O        1.24501500       0.87463100       0.03603400
C        1.21406000      -0.60718000       1.92698700
H       -1.28730400       0.86064900      -2.59467500
H       -0.94683400      -1.23375100      -1.59719700
H       -2.43931700      -0.42798200      -1.05602800
H       -1.21957400      -1.25374400       0.90358600
H       -1.21526500       0.50359100       0.93302100
H        1.11317700      -1.19180000      -0.15587600
H        0.69731500       1.17798500      -0.70857900
H        0.82236900       0.14899000       2.60386400
H        2.29935600      -0.55989000       1.96740500
H        0.89959500      -1.58432500       2.28986700
