19
Properties=species:S:1:pos:R:3 pbc="F F F"
C       -3.00649300      -1.86766700       0.81778100
C       -2.14154300      -0.87961100       1.04763200
C       -1.38446300      -0.14384000      -0.02342000
C        0.13126100      -0.13960200       0.22748700
C        0.89488500       0.65703800      -0.84133200
C        2.38324600       0.62816200      -0.62728400
C        3.15524300       1.71192200      -0.54465200
H       -3.53148000      -2.35562400       1.62989400
H       -3.21349500      -2.21526600      -0.18783400
H       -1.95485600      -0.55865500       2.07318000
H       -1.73939200       0.89540100      -0.06126900
H       -1.60065700      -0.58019100      -1.00382900
H        0.50268100      -1.16920500       0.24976100
H        0.33595100       0.28288800       1.21652700
H        0.53838700       1.69184400      -0.86133000
H        0.66827700       0.23014800      -1.82817300
H        2.83688900      -0.36018400      -0.54340500
H        2.73923100       2.70994500      -0.61993100
H        4.22565300       1.63048100      -0.40085500
