14
Properties=species:S:1:pos:R:3 pbc="F F F"
C        0.88717600      -0.86021800       1.54960200
C        0.35528300       0.12232800       0.49947900
C       -1.13387300       0.12636800       0.49023900
N       -2.28433500       0.11791000       0.46067300
N        0.90797100      -0.20053500      -0.83126900
C        0.54103200       0.75560400      -1.87703700
H        1.97404400      -0.83087600       1.57567000
H        0.58263200      -1.87915600       1.31912100
H        0.51257100      -0.61077000       2.53952600
H        0.68034200       1.14642900       0.76413500
H        0.62131900      -1.14375600      -1.10524000
H        0.92727900       1.74785500      -1.62897800
H       -0.54785300       0.84339200      -2.02130600
H        0.98650000       0.44076500      -2.82245800
