18
Properties=species:S:1:pos:R:3 pbc="F F F"
N       -1.35242200      -1.70191100      -0.95499500
C       -1.69458900      -0.33272100      -0.55804200
C       -1.03441200       0.02662700       0.78693500
N        0.43762400      -0.02520500       0.75853300
C        1.07196700       1.11756800       0.08656600
C        2.58792800       0.97055200       0.08560400
H       -1.79398700      -1.94220400      -1.83855400
H       -1.65822300      -2.36676900      -0.24874500
H       -2.79313400      -0.18794500      -0.47374600
H       -1.35232000       0.35463400      -1.34428200
H       -1.39448000      -0.67347900       1.55917600
H       -1.34972200       1.03124900       1.09919300
H        0.72971300      -0.89574600       0.30597700
H        0.78758500       2.04134500       0.61438000
H        0.71532200       1.24031400      -0.95910300
H        2.97390400       0.89319300       1.09986500
H        3.05961200       1.82730800      -0.39131500
H        2.89394600       0.07575700      -0.45398900
