16
Properties=species:S:1:pos:R:3 pbc="F F F"
C        0.48540600       1.36956900       0.55935800
C        0.06703400       0.08455800      -0.16935400
O       -1.34609600      -0.17340600      -0.04449900
C       -2.18027900       0.73190300      -0.74147400
C        0.79049100      -1.15706900       0.38633400
O        2.19266300      -1.07453800       0.16953200
H        1.56998900       1.45173700       0.57082600
H        0.13618000       1.36024300       1.58954500
H        0.08307200       2.25618800       0.07275100
H        0.31218900       0.19051700      -1.25534500
H       -3.20796000       0.36109700      -0.67644900
H       -1.89227700       0.80574900      -1.80577400
H       -2.14407400       1.74645000      -0.30651800
H        0.38550700      -2.07222600      -0.08967500
H        0.63035200      -1.24902600       1.46930700
H        2.37858000      -1.04093400      -0.77811700
