15
Properties=species:S:1:pos:R:3 pbc="F F F"
N        0.28803300       0.62084800       2.01218600
C       -0.64938300       0.59636900       0.88091000
C       -0.00026900      -0.01683400      -0.36264300
O        1.21573300       0.61120500      -0.73544800
C       -0.10646900      -1.49447900      -0.63075000
C       -0.85184000      -0.50298000      -1.48995200
H       -0.17061100       0.99052800       2.84133700
H        1.07936300       1.22298900       1.79565500
H       -1.02089800       1.61452100       0.64201200
H       -1.52846800       0.00323200       1.16571700
H        1.91034400       0.36107000      -0.11111300
H       -0.68793700      -2.11031200       0.04850700
H        0.74246600      -1.99461100      -1.08402700
H       -1.93190500      -0.45893600      -1.38544300
H       -0.48668200      -0.35651200      -2.49975100
