14
Properties=species:S:1:pos:R:3 pbc="F F F"
C       -1.82150000      -0.19351300      -0.59946600
C       -0.32931100       0.00208500      -0.63762400
C        0.31431900       0.17730400      -1.80395300
C        0.38887500       0.02780400       0.68206800
N       -0.19861400       0.24299500       1.82459600
N        1.76600900      -0.15190800       0.65403400
H       -2.22536500      -0.32764600      -1.59948500
H       -2.31174700       0.67267200      -0.15227900
H       -2.08829900      -1.06095500       0.00368900
H       -0.22368500       0.17407000      -2.74459500
H        1.38209400       0.35658100      -1.84910400
H       -1.20294100       0.40192400       1.72507000
H        2.17632100      -0.63522300      -0.13304900
H        2.20755800      -0.30111300       1.55319300
