14
Properties=species:S:1:pos:R:3 pbc="F F F"
C       -0.71350900      -1.63075100       1.81532900
C       -1.28908300      -0.82753000       0.89922500
O       -0.66205800      -0.02623900       0.01314700
C        0.76160500      -0.00644100       0.02648100
C        1.29199100       0.93367800      -1.01527900
C        0.54067400       1.65323200      -1.84787200
H       -1.33663300      -2.22382900       2.46814300
H        0.35701400      -1.71425700       1.93322900
H       -2.37770800      -0.76239900       0.80091200
H        1.15212000      -1.03059700      -0.14807200
H        1.12274300       0.29256300       1.03247200
H        2.37884800       1.00622200      -1.06532800
H       -0.54048100       1.59560800      -1.81443700
H        0.99049400       2.31347600      -2.57939800
