19
Properties=species:S:1:pos:R:3 pbc="F F F"
C        1.89240500      -0.77928800       1.01865000
C        0.69431900      -1.67360400       1.14193400
C       -0.57415800      -1.44240300       0.77469200
C       -1.23354100      -0.24429100       0.13648400
C       -0.37412100       0.95921800      -0.21800200
C        0.25685900       1.07364900      -1.57244600
C       -0.89731200       1.95474700      -1.21043900
H        2.80604100      -1.36480500       1.09837400
H        1.91618000      -0.03640300       1.81880400
H        1.91825800      -0.24527100       0.07227700
H        0.89504000      -2.63839700       1.60906000
H       -1.28522300      -2.24714600       0.97347900
H       -2.03849800       0.08200400       0.81444000
H       -1.75476900      -0.58679000      -0.76823000
H        0.19109600       1.38086900       0.61372500
H        0.07620600       0.27745500      -2.28723600
H        1.23905400       1.53010500      -1.64772000
H       -1.85227800       1.75280100      -1.68509000
H       -0.69781100       3.00740500      -1.03712600
