17
Properties=species:S:1:pos:R:3 pbc="F F F"
C        0.86161700      -1.41469900       2.02937100
C       -0.22016200      -1.12405900       0.99431500
C        0.25343200      -0.18067600      -0.10529000
C        0.20812500       1.31424400       0.10977200
C       -0.72327200       0.64593900      -0.87595300
N       -0.54146700       0.81651300      -2.31085900
H        0.49015500      -2.08588100       2.80110400
H        1.19491100      -0.49871700       2.51241800
H        1.72934600      -1.88137400       1.56720400
H       -1.09518100      -0.69275100       1.49187100
H       -0.55437700      -2.06812900       0.54683100
H        1.11960800      -0.54104600      -0.66315900
H        1.03336500       1.90245700      -0.27852800
H       -0.20533500       1.67680300       1.04565200
H       -1.77596200       0.57832700      -0.58409500
H        0.43734000       0.71536600      -2.56536000
H       -0.86204200       1.73485000      -2.61121700
