11
Properties=species:S:1:pos:R:3 pbc="F F F"
C       -1.59147100       0.10186500      -0.13037300
C       -0.08425200       0.04404600      -0.05638700
N        0.60338500      -0.64085800       0.82021200
O       -0.17930400      -1.34123600       1.71670600
C        0.65163900       0.81003000      -1.03684800
C        1.18944600       1.47891300      -1.89281800
H       -2.03591500      -0.50784600       0.65016500
H       -1.94230900      -0.25467800      -1.09916300
H       -1.94230400       1.12815200      -0.01900000
H        0.43330400      -1.80953400       2.31610300
H        1.70578300       2.05068100      -2.62468000
