12
Properties=species:S:1:pos:R:3 pbc="F F F"
O       -1.67922900       0.07222300      -1.03248700
C       -0.26083800       0.12232100      -0.83722700
C        0.27907100      -1.14330100      -0.11834200
O        0.94614500      -0.67738400       1.07618400
C        0.81370000       0.67242900       1.14438700
C        0.14746200       1.22329700       0.11294100
H       -1.89451000      -0.51545100      -1.76847400
H        0.21310400       0.24071400      -1.84381200
H        1.00649200      -1.71483000      -0.72017000
H       -0.52480300      -1.83659900       0.17752100
H        1.26417900       1.14612500       2.01447000
H       -0.07616100       2.27285200      -0.01966100
