14
Properties=species:S:1:pos:R:3 pbc="F F F"
C       -0.48676900      -1.89313000      -0.24877900
C       -1.22735300      -0.90777800       0.29345700
O       -0.78339900       0.23924700       0.85387900
C        0.62451200       0.46553900       0.93617600
C        1.23622800       0.93856400      -0.35681700
C        0.55530100       1.24573300      -1.45976800
H       -0.97877300      -2.76449700      -0.65489200
H        0.59008800      -1.84565500      -0.31560900
H       -2.32033000      -0.97133000       0.33202900
H        1.13366300      -0.44993400       1.29462500
H        0.77141500       1.23331500       1.71739700
H        2.32130800       1.04845900      -0.34235000
H       -0.52300900       1.14793300      -1.49596300
H        1.06132000       1.59417000      -2.35187400
