14
Properties=species:S:1:pos:R:3 pbc="F F F"
N       -0.75385800       1.70370700       0.09191200
C       -1.10616900       0.55139400      -0.73667200
C       -0.57765400      -0.75097200      -0.11607100
C        0.92476200      -0.81938900      -0.11437600
C        1.67431400      -0.98986000       0.97504100
H       -1.00487800       2.57408700      -0.36931000
H        0.24448300       1.70858800       0.28646700
H       -0.71433800       0.64666300      -1.77245700
H       -2.20206200       0.49586600      -0.82673700
H       -0.97160000      -1.59672800      -0.69557800
H       -0.95862200      -0.85689500       0.90338400
H        1.40970700      -0.71958900      -1.08675600
H        1.22821200      -1.08718600       1.95786300
H        2.75459200      -1.03780200       0.91220800
