13
Properties=species:S:1:pos:R:3 pbc="F F F"
C        1.24102700      -1.11732100       0.60677500
C        0.38049800       0.14657000       0.51353600
C       -1.07468900      -0.18006100       0.22139900
C       -1.72667700       0.14597500      -0.89419100
O        0.94227300       1.00914000      -0.46695000
H        2.26731900      -0.85677900       0.85465700
H        1.24802800      -1.64800900      -0.34190300
H        0.86081000      -1.78942600       1.37360700
H        0.41035200       0.66327600       1.50852600
H       -1.60082700      -0.72542300       1.00607200
H       -1.23134700       0.66868200      -1.70475100
H       -2.76753200      -0.11870100      -1.03542300
H        0.35405600       1.76227700      -0.61030200
