18
Properties=species:S:1:pos:R:3 pbc="F F F"
C       -0.53700700      -0.19692200       1.89495600
C       -0.64514100       0.96107900       0.90930800
C        0.05865200       0.76524700      -0.45809000
C       -0.52522200      -0.40493000      -1.29200700
O        0.01053400      -1.66862000      -0.94264700
C        1.58109000       0.65347500      -0.32067900
H       -0.96053600       0.08804200       2.85585700
H        0.49864100      -0.48544200       2.06310000
H       -1.08308700      -1.07297400       1.54834000
H       -0.23229700       1.86015300       1.37927100
H       -1.70508000       1.17170900       0.72759900
H       -0.15206300       1.68407100      -1.03150700
H       -1.63291400      -0.41642200      -1.19302100
H       -0.30053700      -0.24545800      -2.35848900
H       -0.01191400      -1.77765400       0.01626700
H        1.86519500      -0.24634700       0.22013400
H        1.98620800       1.51058300       0.21395200
H        2.04987100       0.61099900      -1.30125500
