14
Properties=species:S:1:pos:R:3 pbc="F F F"
C       -1.33344400      -0.76065600      -1.76140400
O       -1.45340000      -1.12380900      -0.39255700
C       -0.92073600      -0.19084400       0.50041100
O        0.48390800      -0.05822100       0.26135300
C        1.11032700       0.97722000       0.87308600
C        2.43980800       1.15416000       0.80679900
H       -1.80995400      -1.54314500      -2.35765800
H       -0.27797800      -0.66991500      -2.05769100
H       -1.83705200       0.20164500      -1.95925500
H       -1.10429400      -0.56096200       1.53411800
H       -1.41478400       0.81473800       0.39366700
H        0.45633100       1.67539700       1.41959600
H        3.06817700       0.46009200       0.26696000
H        2.89976200       1.99911400       1.29654000
