12
Properties=species:S:1:pos:R:3 pbc="F F F"
O        0.38154500      -1.90810700       0.71767100
C       -0.22917900      -0.71885200       0.41622200
O       -1.37400900      -0.49452800       0.76479000
C        0.62337600       0.25413100      -0.36210000
C       -0.06116300       1.15295300      -1.36415200
C        0.43995900       1.72872900      -0.09340700
H        1.28786500      -1.95390700       0.38568500
H        1.63444700      -0.07497400      -0.61142100
H       -1.13293000       1.02524600      -1.47382300
H        0.47586200       1.37570200      -2.28043600
H       -0.29022500       1.99381400       0.66393300
H        1.32673900       2.35342900      -0.12300600
