21
Properties=species:S:1:pos:R:3 pbc="F F F"
C       -3.10362900      -0.30469200       0.91398200
C       -1.58138300      -0.29470800       0.96678200
C       -0.95078100       0.23801000      -0.33239800
C        0.56449400       0.26436800      -0.28615800
C        1.28622300      -0.55525600      -1.07316200
C        2.78144000      -0.63366400      -1.12242100
C        1.19956200       1.24574200       0.67147600
H       -3.52120900      -0.67916400       1.84641100
H       -3.46341800      -0.94066200       0.10752400
H       -3.49752600       0.69616900       0.74801400
H       -1.21668900      -1.30884800       1.15784700
H       -1.24859300       0.31736600       1.81149700
H       -1.32821100       1.25219100      -0.51662700
H       -1.28458900      -0.37801300      -1.17376400
H        0.75631500      -1.23333100      -1.74183300
H        3.25052800       0.04288600      -0.41314900
H        3.15179000      -0.38960800      -2.12006000
H        3.12272300      -1.64642700      -0.90052000
H        0.44576600       1.85764400       1.16073200
H        1.88824900       1.91554800       0.15634800
H        1.76931200       0.73544400       1.44897600
