17
Properties=species:S:1:pos:R:3 pbc="F F F"
C       -2.44533600      -1.12379500       1.00165700
N       -0.99418500      -0.99197200       1.07703500
C       -0.45897500       0.09117800       0.23991900
C        1.04435000       0.14104700       0.32962800
C        1.87788900       0.66576800      -0.57919500
C        1.49221500       1.30241400      -1.87778700
H       -2.77060900      -1.95902300       1.62601500
H       -2.81457700      -1.30131300      -0.02535600
H       -2.92598700      -0.21281800       1.37006200
H       -0.54972900      -1.87701700       0.82308700
H       -0.88784700       1.04650200       0.59272200
H       -0.78671900      -0.00641100      -0.81802600
H        1.47528400      -0.28090200       1.23710000
H        2.94750400       0.64571300      -0.36968500
H        0.43846300       1.16387100      -2.10728800
H        2.08052200       0.88987800      -2.69833900
H        1.69213600       2.37565300      -1.85487400
