17
Properties=species:S:1:pos:R:3 pbc="F F F"
C       -0.58335000      -2.15465300       0.15016500
N       -1.02072000      -0.78640800      -0.11850300
C       -0.36574100       0.21348800       0.71400600
C       -0.42925000       1.64673800       0.27758200
C        0.87801500       0.90076500       0.21813400
C        1.48704400       0.55008100      -1.12123400
H       -1.12523100      -2.84675300      -0.49882200
H       -0.75174500      -2.46855800       1.19678000
H        0.48498200      -2.25671600      -0.05609400
H       -2.03684000      -0.72139700      -0.01327000
H       -0.41523000       0.03389800       1.80439100
H       -0.54824500       2.41239000       1.03867400
H       -0.92460200       1.86329200      -0.66294700
H        1.60542900       1.17421800       0.98533400
H        0.72104500       0.21116300      -1.81409700
H        2.22493900      -0.24540500      -1.01839300
H        1.99022300       1.41020900      -1.56395500
