12
Properties=species:S:1:pos:R:3 pbc="F F F"
O       -0.81120100      -1.16391000       0.68370800
C       -1.66100200      -0.19442000       0.12994900
C       -0.90781800       0.91645300      -0.53955700
C        0.42702400       1.06004000      -0.63451700
C        1.42623900       0.17989100      -0.11402900
C        2.39290800      -0.45155500       0.26154800
H       -1.32834700      -1.85572600       1.11350800
H       -2.32671200       0.23690800       0.91653500
H       -2.35716600      -0.66077200      -0.60872800
H       -1.53643600       1.68398200      -0.99227200
H        0.82114400       1.93368500      -1.15967900
H        3.15301200      -1.08925200       0.64061200
