16
Properties=species:S:1:pos:R:3 pbc="F F F"
C       -1.52123700       1.01008000      -1.16884500
N       -1.79379800      -0.18983900      -0.39536600
C       -0.96930200      -0.76401500       0.57832600
N        0.30306000      -0.67636300       0.79850700
C        1.20323400       0.15176900      -0.00895700
C        2.63573800       0.05676200       0.51177200
H       -2.36055800       1.17897800      -1.84743600
H       -0.61967800       0.90649900      -1.77546200
H       -1.41455700       1.91061000      -0.54332800
H       -2.78401900      -0.34141100      -0.22493800
H       -1.54840000      -1.45284900       1.22393000
H        0.88696500       1.21057100       0.00142000
H        1.18361700      -0.17159500      -1.06570500
H        2.69750200       0.38906100       1.54562500
H        3.30712600       0.67455500      -0.08252700
H        2.99657000      -0.96858000       0.47265700
