11
Properties=species:S:1:pos:R:3 pbc="F F F"
N       -1.61055900       0.56955900       0.30915300
C       -0.13863600       0.51035500       0.27881500
C        0.37905100      -0.69685300       0.98069800
C        0.73570200      -1.66723200       1.60574800
C        0.35937200       0.57075000      -1.11241100
C        0.78877300       0.64065000      -2.23829900
H       -1.94505700       0.49675300       1.26766300
H       -2.00681500      -0.19913100      -0.22757900
H        0.25111000       1.40069400       0.81622300
H        1.07734600      -2.52779900       2.12774100
H        1.15175300       0.69654700      -3.23541800
