16
Properties=species:S:1:pos:R:3 pbc="F F F"
C       -2.18859700      -0.62750200       0.84298100
N       -0.72474500      -0.60668300       0.82003500
C       -0.08215600      -1.32215200      -0.28813200
C       -0.09645400       0.17268600      -0.25292700
C        1.14915800       0.97188700       0.10413200
N        1.89543500       1.33672900      -1.10516600
H       -2.53802300      -1.53881400       1.33750500
H       -2.63844100      -0.59016100      -0.16256900
H       -2.56176500       0.22812400       1.41393700
H       -0.73272200      -1.83470200      -1.00101300
H        0.82881100      -1.86431200      -0.02583600
H       -0.77990100       0.66581300      -0.95713300
H        1.76856300       0.39021600       0.81705600
H        0.86332200       1.89761900       0.62699400
H        2.17028500       0.50575900      -1.62288300
H        2.73333200       1.86062300      -0.86646100
