14
Properties=species:S:1:pos:R:3 pbc="F F F"
C        1.35230000       0.32321300       1.38807100
C        0.75278100      -0.12897200       0.05012100
C       -0.77427500      -0.05914400       0.04376700
C       -1.52955300       0.22490200      -1.19419800
O       -1.33683500       1.22981900      -0.20514400
O        1.12441300      -1.48601600      -0.22678800
H        2.44013500       0.26665000       1.36478700
H        1.00150400      -0.30474500       2.20470900
H        1.07083700       1.35068000       1.60586800
H        1.14622200       0.52515300      -0.76210800
H       -1.28166900      -0.61974700       0.84554700
H       -2.56362800      -0.12496000      -1.30403600
H       -0.99621200       0.39511300      -2.13794400
H        2.07467600      -1.59856800      -0.08792600
