17
Properties=species:S:1:pos:R:3 pbc="F F F"
C       -0.87919100      -0.76800900      -1.70016500
C       -1.50793400      -0.13300200      -0.71087900
C       -0.92180000       0.44741900       0.56282300
N        0.52478800       0.34552600       0.80298500
C        1.02534800      -0.99920500       1.07585900
C        1.36764000       1.14271000      -0.08446600
H       -1.43068200      -1.13355500      -2.55909800
H        0.18837900      -0.94352800      -1.69208900
H       -2.58858300       0.00541900      -0.79389900
H       -1.44409500      -0.02302300       1.41522100
H       -1.20107300       1.51581000       0.60145500
H        0.39213500      -1.48239500       1.82541400
H        2.04373000      -0.93804100       1.47460200
H        1.05973100      -1.65972300       0.19056300
H        0.97474400       2.16138400      -0.14777000
H        1.44334300       0.74867900      -1.11398700
H        2.38447600       1.19081500       0.31966100
