12
Properties=species:S:1:pos:R:3 pbc="F F F"
N       -2.10416400      -0.59446500      -0.09811000
C       -0.77922000      -0.21041600      -0.34930400
N       -0.26368900      -0.18654600      -1.53455100
C       -0.01492000       0.25406200       0.87757700
C        1.41808600       0.43832200       0.66179000
C        2.60848400       0.59740500       0.53969700
H       -2.57997200      -1.09973300      -0.83626800
H       -2.34912700      -0.87425500       0.84319500
H       -0.91644200      -0.50564100      -2.25613600
H       -0.17057000      -0.46200200       1.69805200
H       -0.45274000       1.20179700       1.22517800
H        3.64924400       0.73067500       0.37605100
