13
Properties=species:S:1:pos:R:3 pbc="F F F"
C       -2.18108400       0.80373000      -0.91336300
C       -0.66050000       0.66618800      -0.89716300
C       -0.06949500       0.93597000       0.45666300
C        0.81741800       0.14398400       1.08403100
C        1.31405400      -1.08937400       0.54147700
N        1.73687800      -2.08567700       0.13765500
H       -2.56772300       0.64543300      -1.91738100
H       -2.48709800       1.79516800      -0.58543600
H       -2.64688300       0.07487300      -0.25434000
H       -0.23422000       1.38212000      -1.61365700
H       -0.36680200      -0.32952000      -1.24033400
H       -0.38728800       1.85210000       0.95437600
H        1.20950300       0.41657800       2.06331500
