14
Properties=species:S:1:pos:R:3 pbc="F F F"
C       -1.56591100      -1.68219700       1.00169800
C       -0.04246200      -1.51385400       0.96925600
N        0.44756700      -0.60311300      -0.08281600
C        0.12084900       0.80706100       0.13781900
C        0.65182300       1.64630500      -0.94365500
N        1.04394700       2.32428500      -1.78590000
H       -1.85440500      -2.38556900       1.77922500
H       -1.93655800      -2.06109900       0.05128000
H       -2.06801300      -0.73827100       1.20374000
H        0.42650100      -2.49539000       0.81032900
H        0.31350800      -1.14437300       1.94042000
H        0.10755800      -0.90571600      -0.99871200
H        0.55767900       1.14052800       1.09239300
H       -0.97266400       0.99780200       0.21163100
