15
Properties=species:S:1:pos:R:3 pbc="F F F"
C       -1.59200200       0.38503900       0.54791100
C       -0.28975200       0.04486100       0.58786600
C        0.36800900      -0.19163800       1.88235700
C        1.65088900      -0.53471000       2.06379900
C        0.55175700      -0.10937400      -0.66703700
C       -0.15696900       0.13964700      -1.92135000
C       -0.70532800       0.33603200      -2.97972200
H       -2.16539400       0.48748300       1.46213800
H       -2.10010400       0.56364700      -0.39117300
H       -0.27002500      -0.07006100       2.75793800
H        2.33659200      -0.67082800       1.23552700
H        2.04868700      -0.68829500       3.05906500
H        0.97529900      -1.12415800      -0.69577200
H        1.41548300       0.56928800      -0.60806700
H       -1.20016200       0.51378100      -3.90260200
