16
Properties=species:S:1:pos:R:3 pbc="F F F"
C       -1.00946800       1.76538500       1.07686400
N        0.39107800       1.44079800       0.87844100
C        0.85206800       0.40305400       0.24543400
N        0.24490300      -0.66497200      -0.40601600
C       -1.17773100      -0.91330600      -0.55708300
C        1.08800600      -1.67636500      -1.02180600
H       -1.08540000       2.70047800       1.64642800
H       -1.54894700       0.99814700       1.65311200
H       -1.54998000       1.92503200       0.13129400
H        1.95624100       0.31582600       0.19207700
H       -1.77044600      -0.13933000      -0.08531700
H       -1.45520100      -1.88235400      -0.11258400
H       -1.45546900      -0.96251300      -1.62200200
H        2.14043400      -1.43238400      -0.87374000
H        0.89951900      -1.75338100      -2.10390500
H        0.90014000      -2.67291500      -0.59279700
