14
Properties=species:S:1:pos:R:3 pbc="F F F"
C       -1.27854700      -0.57033200       1.00627000
C        0.24116500      -0.44403800       0.85048600
C        0.63234000       0.51306200      -0.31287700
C        0.21126100      -0.02680100      -1.67337800
O       -0.51523600       0.55264300      -2.43879400
O        0.83147800       0.01131500       2.06568100
H       -1.73178100      -0.96385800       0.09893700
H       -1.73189600       0.39783300       1.21307600
H       -1.52389100      -1.23854800       1.82830300
H        0.67681000      -1.44080000       0.64737100
H        1.72143000       0.63156800      -0.30639800
H        0.19657800       1.50354200      -0.15544400
H        0.63871500      -1.04811100      -1.92970300
H        0.38678400       0.81536700       2.36576300
