17
Properties=species:S:1:pos:R:3 pbc="F F F"
C       -0.96883500       0.04612000      -2.09315300
C       -0.95016400       0.03864100      -0.56601800
C       -0.15385300      -1.10397400       0.09892000
C        0.85368400      -0.03058900       0.56054800
N       -0.03933000       1.04747300       0.04785500
C        1.16524500       0.05644200       2.05330900
H       -1.56947300      -0.77596200      -2.47864800
H        0.03516700      -0.05235400      -2.50239600
H       -1.39366700       0.97548500      -2.46909800
H       -1.98768300       0.13913100      -0.19012800
H        0.24317300      -1.86462500      -0.57799400
H       -0.68413400      -1.60664500       0.91129800
H        1.80401800      -0.08270000      -0.00829000
H        0.41318500       1.65669000      -0.63806700
H        0.25192400       0.08987400       2.64302900
H        1.73977900       0.95377300       2.27553100
H        1.74656300      -0.80481300       2.37813800
