21
Properties=species:S:1:pos:R:3 pbc="F F F"
C       -2.35580500      -1.07083000       0.41771000
C       -1.45289600       0.15108100       0.27882400
C       -0.38146300      -0.03628900      -0.78855400
C        0.85612100       0.82467100      -0.85536000
C        0.97206200      -0.63815600      -0.49886700
C        1.38344500      -1.11163700       0.87873200
C        1.13609000       1.93200200       0.13845200
H       -3.12290600      -0.90320100       1.17124100
H       -1.78359300      -1.94858700       0.71045500
H       -2.85424200      -1.29850200      -0.52280200
H       -0.99402000       0.37467600       1.24610100
H       -2.06730100       1.02364800       0.02339500
H       -0.79802100      -0.30852900      -1.76195000
H        1.18333300       1.07322600      -1.86830800
H        1.36884200      -1.26919300      -1.29841000
H        0.97409300      -0.48411000       1.66599000
H        2.46869200      -1.10742000       0.98038300
H        1.04264900      -2.13179300       1.05517900
H        0.81848700       1.66883400       1.14392200
H        0.61696900       2.84756300      -0.14552800
H        2.20169800       2.15833500       0.17470600
