14
Properties=species:S:1:pos:R:3 pbc="F F F"
C       -2.79488800       0.20076700      -0.87705400
O       -1.38445800       0.19093700      -0.83346300
C       -0.86560600      -0.10419700       0.45613900
C        0.60218900      -0.10000000       0.43756800
C        1.81102600      -0.10997600       0.47895900
C        3.26758300      -0.11160400       0.48585900
H       -3.10276600       0.43419800      -1.90029900
H       -3.21584600       0.96067000      -0.19245800
H       -3.21569800      -0.78091700      -0.58978100
H       -1.23865900      -1.09711800       0.80132400
H       -1.23863500       0.63975100       1.19884100
H        3.65211300       0.20395200       1.45735300
H        3.65672300       0.57140400      -0.27100100
H        3.65660500      -1.10937300       0.27489700
