17
Properties=species:S:1:pos:R:3 pbc="F F F"
C       -1.21336900       1.83989900      -0.45063000
C       -2.38051100       0.93495900      -0.25997400
N       -1.06537600       0.39170100      -0.59881400
C       -0.34840000      -0.31021800       0.48362800
C        1.15377000      -0.29320700       0.23608700
C        1.84260200      -1.40264600      -0.48158900
N        1.96119500      -1.27072900       0.97131700
H       -0.77335800       2.30768800       0.43391200
H       -1.12202200       2.42110900      -1.37010000
H       -3.13906700       0.85552200      -1.04076700
H       -2.74898800       0.77547600       0.75662900
H       -0.70422500      -1.34954800       0.52385200
H       -0.57049100       0.14235000       1.47221800
H        1.59438800       0.70747200       0.12943800
H        2.72940800      -1.17707900      -1.07784700
H        1.26883900      -2.26477000      -0.82436800
H        2.87023300      -0.87773700       1.22437700
