15
Properties=species:S:1:pos:R:3 pbc="F F F"
C       -1.61098400      -0.41999600      -0.65869200
C       -0.16131600      -0.47149400      -0.26017100
C        0.44036700       0.56912300       0.37862800
C       -0.21218300       1.78677500       0.73327000
C       -0.70235600       2.84734100       1.06584400
C        0.55613700      -1.70792200      -0.60244600
C        1.84162200      -1.99072900      -0.34105300
H       -2.06087300       0.53494600      -0.40241000
H       -2.17741100      -1.21074100      -0.16388100
H       -1.72285400      -0.57742000      -1.73240500
H        1.49355800       0.50321900       0.65440100
H       -1.16615400       3.76230000       1.34248800
H       -0.03982500      -2.45853200      -1.12204900
H        2.49442300      -1.29394200       0.17224400
H        2.27141500      -2.93841400      -0.64067100
