17
Properties=species:S:1:pos:R:3 pbc="F F F"
C       -1.91882100       0.39730800      -0.44778700
N       -0.46083500       0.37069900      -0.49020600
C        0.27003400       1.44916800       0.21593600
C        1.19911800       0.41400200       0.85937900
C        0.23975200      -0.66859200       0.32176500
C        0.83284700      -1.82658800      -0.47794400
H       -2.28971900       1.27391300      -0.98666100
H       -2.32471800       0.43633600       0.58074000
H       -2.32179900      -0.49670600      -0.93242500
H       -0.34928700       1.99927100       0.94559500
H        0.73659400       2.18888200      -0.45562200
H        1.30130100       0.46914900       1.94608400
H        2.19876400       0.37996000       0.41937300
H       -0.41070200      -1.06962200       1.12745500
H        1.47751800      -1.46376700      -1.27582900
H        0.04592200      -2.42761400      -0.93010500
H        1.42439500      -2.47648700       0.16474100
