14
Properties=species:S:1:pos:R:3 pbc="F F F"
C       -1.87804600      -0.15682300      -0.57524200
C       -0.34502200      -0.14444000      -0.47287500
C        0.15453100       1.20469600      -0.15961700
C        0.55811200       2.31479000       0.09248100
C        0.15360300      -1.18564500       0.56306800
O        1.56271400      -1.27563400       0.58353400
H       -2.22330700       0.54782500      -1.32786500
H       -2.33411500       0.11495600       0.37415500
H       -2.23341900      -1.14890800      -0.84870800
H        0.06827100      -0.42929100      -1.45884900
H        0.92269900       3.28432000       0.32796600
H       -0.29447400      -2.17429200       0.31819500
H       -0.18070200      -0.91885000       1.57581400
H        1.91426500      -1.26615400      -0.31586600
