16
Properties=species:S:1:pos:R:3 pbc="F F F"
C       -1.20407500      -0.51717500      -1.55027100
C       -0.00613100      -1.22679100      -0.93339800
C        0.63550500      -0.46804300       0.23711600
C       -0.24082300      -0.02951800       1.41813100
C        0.15862100       1.39047400       1.03721300
O        0.94240300       0.91885000      -0.07537000
H       -1.56796600      -1.06118600      -2.41945200
H       -0.92823400       0.48570100      -1.86599900
H       -2.02600300      -0.43292600      -0.84132100
H        0.75652000      -1.37847200      -1.70445600
H       -0.29836400      -2.22571500      -0.58835300
H        1.55988600      -1.00175800       0.55358500
H        0.09751300      -0.36761100       2.40160800
H       -1.30615500      -0.25633600       1.32584200
H        0.77599500       1.93536200       1.77600700
H       -0.66099700       2.05845500       0.71275100
