16
Properties=species:S:1:pos:R:3 pbc="F F F"
N       -0.96614800       1.53645100      -1.48641500
C       -1.35648000       0.91127700      -0.22361200
C       -0.74239700      -0.48396200      -0.07215800
N        0.72832100      -0.42790600      -0.04237700
C        1.34700600      -0.17615400       1.25710700
C        1.40844100      -1.52913800       0.63609900
H       -1.42984500       2.43246100      -1.60761900
H       -1.19459400       0.93722500      -2.27489700
H       -2.46188100       0.82380600      -0.12701000
H       -1.02801000       1.55442800       0.60656700
H       -1.04836000      -1.11533800      -0.92196800
H       -1.15159700      -0.96351200       0.84143600
H        0.68627200      -0.03425900       2.11686300
H        2.22817400       0.46817800       1.24614100
H        0.79109400      -2.32226100       1.06715700
H        2.33411000      -1.87268300       0.17026300
