15
Properties=species:S:1:pos:R:3 pbc="F F F"
O       -1.35746300      -1.00499700       0.66423300
C       -0.08590900      -0.89478400       1.28024500
C        1.01511400      -0.71976300       0.23544500
C        0.93061300       0.54111700      -0.62999800
C       -0.21992900       0.80515500      -1.53857600
N       -0.01648000       1.61946700      -0.33793400
H       -2.03231300      -1.17601900       1.33378200
H        0.12022000      -1.80747300       1.88026500
H       -0.08366800      -0.04678900       1.99891900
H        1.03173600      -1.60384800      -0.41378800
H        1.97715900      -0.71958300       0.76244700
H        1.91243100       0.90304200      -0.96212000
H       -1.06267600       0.11475000      -1.53013000
H       -0.04980700       1.32119800      -2.48607700
H       -0.67735200       1.32808500       0.38568800
