17
Properties=species:S:1:pos:R:3 pbc="F F F"
C       -0.25067800       1.85285000      -1.01698200
C       -0.77971500       0.46672200      -1.35450400
C       -0.29906600      -0.63281100      -0.36757000
C       -0.82225200      -0.40012200       0.98873500
C       -1.29071200      -0.22279700       2.08827200
C        1.20969900      -0.79266800      -0.41124100
C        2.02377400      -0.79164300       0.64325600
H       -0.62230800       2.59079800      -1.72523400
H        0.83654200       1.87183200      -1.04778000
H       -0.56167100       2.15367500      -0.01942600
H       -0.46324100       0.18587500      -2.36529100
H       -1.87408400       0.48009100      -1.36129900
H       -0.73531300      -1.58835300      -0.72221300
H       -1.68701100      -0.06048300       3.06034800
H        1.62399400      -0.92990600      -1.41109600
H        1.64463000      -0.65427400       1.64886500
H        3.09215700      -0.92643800       0.52333200
