14
Properties=species:S:1:pos:R:3 pbc="F F F"
C       -2.40201400       0.50583100      -0.48114900
C       -1.45407600      -0.42837600      -0.41152700
C       -0.63473400      -0.71523000       0.81882800
C        0.87537500      -0.72368800       0.53699100
C        1.40797300       0.63693900       0.08749200
O        2.30349400       0.77742300      -0.70413400
H       -2.97019000       0.66214400      -1.38972500
H       -2.63547000       1.13918100       0.36702700
H       -1.24116100      -1.04628900      -1.28378200
H       -0.92126100      -1.69695600       1.21847400
H       -0.86167200       0.01882800       1.59915300
H        1.12616200      -1.47881800      -0.21279500
H        1.40996400      -1.00273500       1.45396900
H        0.91053000       1.53240900       0.57694300
