17
Properties=species:S:1:pos:R:3 pbc="F F F"
C       -2.45468500       0.05007500      -0.60361700
C       -0.94226800       0.01697900      -0.58247900
C       -0.23088000      -0.78891100       0.48508900
C       -0.19791300       0.72130200       0.51871200
C        1.23599600       1.15566000       0.21670300
C        1.95840100      -0.14607700      -0.03496200
C        1.16019900      -1.20954500       0.14075800
H       -2.86085500      -0.80877700      -1.13836200
H       -2.82191600       0.94820700      -1.10091700
H       -2.86245800       0.03796200       0.40502400
H       -0.47492100       0.02793100      -1.56886200
H       -0.82785200      -1.37591300       1.18340000
H       -0.77390400       1.27661100       1.25867300
H        1.68028500       1.70227900       1.06064900
H        1.30009500       1.83167300      -0.64693900
H        3.00367000      -0.19022400      -0.32687200
H        1.46475500      -2.24665100       0.03297700
