12
Properties=species:S:1:pos:R:3 pbc="F F F"
C       -1.89386400       1.12393700      -0.89450500
C       -0.61094800       1.14901100      -0.52965900
C       -0.00204400       0.22010900       0.50282300
C        0.05052000      -1.23566100       0.00291300
O        1.08227500      -1.86009200       0.01712400
O        1.31740900       0.60955200       0.83505800
H       -2.27643700       1.80661600      -1.64278200
H       -2.60206000       0.43220500      -0.45072200
H        0.07592800       1.85782000      -0.98787800
H       -0.63616000       0.22349200       1.42216700
H       -0.91519200      -1.69215600      -0.36643400
H        1.89446900      -0.16802600       0.71876400
