16
Properties=species:S:1:pos:R:3 pbc="F F F"
C        1.10100000      -0.48542200       1.18374500
C       -0.28396600       0.08212700       0.85745400
C       -0.41663400       0.52681700      -0.60736000
O        0.69878900       1.18869500      -1.20064300
C        0.32619300      -0.07956300      -1.73179400
C       -1.39914100      -0.90947300       1.21977300
H        1.20932300      -0.63012400       2.25660800
H        1.87808200       0.19655900       0.84806800
H        1.26057900      -1.44842500       0.70168300
H       -0.42796700       0.98329500       1.47680400
H       -1.38503500       1.00360000      -0.84314400
H        1.04817700      -0.88664300      -1.55792500
H       -0.09152400      -0.05065000      -2.74697400
H       -1.30579700      -1.83298200       0.65082800
H       -2.38041900      -0.48592500       1.01195500
H       -1.36044000      -1.16518100       2.27632900
