19
Properties=species:S:1:pos:R:3 pbc="F F F"
C       -1.06806600       1.88550600       1.65863400
C       -1.76060100       0.92554700       1.04471900
C       -1.28132700      -0.46149000       0.70785800
C        0.22759500      -0.70547600       0.81733400
C        1.06363600       0.00662400      -0.26289100
C        0.87149200      -0.56542100      -1.64050500
C        1.85958200      -1.02869000      -2.40672400
H       -1.52095200       2.84579300       1.87232200
H       -0.03936100       1.74716000       1.96818200
H       -2.79698300       1.12605000       0.76750800
H       -1.62618200      -0.71351200      -0.30283800
H       -1.80355700      -1.16776100       1.36951200
H        0.41328700      -1.78289100       0.76165500
H        0.57794000      -0.38602700       1.80439900
H        2.12251700      -0.04643700       0.01002500
H        0.79484100       1.07037800      -0.27777600
H       -0.15054900      -0.58360800      -2.02068800
H        2.88825900      -1.02810300      -2.06489000
H        1.66687800      -1.42064000      -3.39796800
