6
Properties=species:S:1:pos:R:3 pbc="F F F"
N       -3.16038400       0.00000000       0.00000000
C       -2.00139600       0.00000000       0.00000000
C       -0.61060900       0.00000000       0.00000000
C        0.61060900       0.00000000       0.00000000
C        2.00139600       0.00000000       0.00000000
N        3.16038400       0.00000000       0.00000000
