15
Properties=species:S:1:pos:R:3 pbc="F F F"
N       -1.29801800       0.00003800       0.54805300
C       -0.68720400       1.20228800      -0.04205400
C        0.69112600       0.74966100      -0.49284500
C        0.69109400      -0.74971200      -0.49279300
C       -0.68725200      -1.20226600      -0.04198500
C        1.50439900      -0.00001300       0.52109400
H       -2.31519400       0.00005200       0.46718300
H       -0.65485200       2.02607000       0.69417000
H       -1.26649400       1.58465700      -0.90891700
H        1.20945400       1.32079500      -1.26297600
H        1.20940600      -1.32090200      -1.26288400
H       -0.65494500      -2.02604100       0.69425200
H       -1.26654300      -1.58463500      -0.90884100
H        2.58247500      -0.00003400       0.38957700
H        1.16984800       0.00002900       1.55356100
