17
Properties=species:S:1:pos:R:3 pbc="F F F"
C       -1.50379700      -0.60098000       0.36843900
C        0.02590800      -0.55636500       0.22306500
O        0.43387900      -0.92739900      -1.11575300
C        0.10671900      -0.02931500      -2.15787700
C        0.63119100       0.80266000       0.63549700
N        0.53722000       0.99495500       2.08569600
H       -1.89726700      -1.53583600      -0.02417600
H       -1.98666000       0.21820200      -0.16223900
H       -1.78986900      -0.53056600       1.41627800
H        0.45975900      -1.34206800       0.86979300
H        0.35736800      -0.51689900      -3.10605600
H        0.68213100       0.91266800      -2.09091500
H       -0.96707800       0.22558900      -2.16750700
H        0.13486500       1.62609400       0.08011900
H        1.69111700       0.82620200       0.34950000
H       -0.43321600       0.99453900       2.39026900
H        0.95714900       1.88059000       2.35633500
