16
Properties=species:S:1:pos:R:3 pbc="F F F"
C        0.33052900       1.79550900       1.52190100
N       -0.62482200       1.28862400       0.53803700
C       -0.04245700       0.35474700      -0.41768900
C       -0.97723700      -0.58207000      -1.14240300
C       -0.02170900      -1.10153400      -0.08677200
N        1.13347900      -1.90471400      -0.46386700
H       -0.17037000       2.50194500       2.18803300
H        1.19351500       2.31281800       1.06459600
H        0.72151400       0.97278700       2.12582400
H       -1.06165900       2.07159600       0.04435100
H        0.81098700       0.73503700      -1.00904500
H       -0.76157500      -0.80330600      -2.18289300
H       -2.03250400      -0.52933200      -0.89650100
H       -0.46587200      -1.40380000       0.86492400
H        1.61673200      -1.49297500      -1.25799100
H        0.85387700      -2.85204600      -0.71070600
