12
Properties=species:S:1:pos:R:3 pbc="F F F"
O       -0.23919500       2.04863600       1.08830200
C       -1.30595200       1.24740500       0.62954700
C       -0.80483400      -0.00544100      -0.02333200
C        0.49978400      -0.30545800      -0.15452400
C        0.98227000      -1.50054500      -0.77565100
C        1.44669100      -2.49662500      -1.28925600
H       -0.58118200       2.85014800       1.50378800
H       -1.93858300       1.82060300      -0.08789000
H       -1.98536700       0.98794100       1.47477300
H       -1.56433400      -0.68828100      -0.40196700
H        1.25193400       0.38450600       0.22770600
H        1.82333700      -3.38002600      -1.74352900
