21
Properties=species:S:1:pos:R:3 pbc="F F F"
C        0.26888500      -0.64653100      -2.07031700
C       -0.05945300      -1.38013500      -0.77691500
C        0.28743000      -0.59083000       0.51676700
C       -0.48852600       0.72321800       0.59594800
C        0.07325500       1.92968200       0.43742700
C       -1.96216000       0.59098100       0.87880700
C        1.80193100      -0.42524200       0.68271800
H       -0.02156300      -1.24371700      -2.93243100
H        1.33427800      -0.44271900      -2.15068000
H       -0.25864400       0.30279400      -2.12514900
H        0.47606200      -2.33549900      -0.75280300
H       -1.12678000      -1.62644600      -0.76506600
H       -0.06497100      -1.21546400       1.35685300
H       -0.52237100       2.83201800       0.50395100
H        1.12949600       2.04822500       0.23519900
H       -2.44606200       1.56318100       0.92866600
H       -2.13064900       0.07579200       1.82586800
H       -2.45902400       0.00266200       0.10617200
H        2.24018000       0.13773600      -0.13815700
H        2.28581100      -1.39984600       0.71173200
H        2.03606300       0.09443200       1.60924100
