16
Properties=species:S:1:pos:R:3 pbc="F F F"
C        0.91313900      -0.45813200      -1.47475500
C        0.36681800      -0.69015700      -0.05753800
C       -1.10710000      -0.70743000      -0.05180900
C       -2.31462000      -0.74634000      -0.03750300
C        0.92547000       0.32867100       0.96873700
C        0.50214800       1.76855600       0.71368200
H        2.00117600      -0.48658900      -1.47057900
H        0.60190400       0.50711500      -1.86653600
H        0.55561000      -1.22718100      -2.15577200
H        0.69999200      -1.69254600       0.26872400
H       -3.37641900      -0.76996800      -0.02898300
H        2.01882200       0.25979100       0.96476900
H        0.59895000       0.02843200       1.96946200
H        0.87879300       2.12890800      -0.24120500
H        0.88751100       2.42295900       1.49287000
H       -0.58147000       1.85807000       0.70237000
