17
Properties=species:S:1:pos:R:3 pbc="F F F"
N       -1.41427300       1.51570000       0.19573200
C       -1.35027700       0.12962000       0.66811300
C       -0.79511100      -0.81950300      -0.40057900
C        0.71047800      -0.76216700      -0.65039200
C        1.53530400       0.46353900      -0.40849200
C        1.70508100      -0.73553200       0.47090800
H       -1.84331500       2.11307900       0.89756200
H       -1.95837900       1.57755900      -0.66086500
H       -2.35418600      -0.23908200       0.97191400
H       -0.72865400       0.09377600       1.57404300
H       -1.31666900      -0.62783000      -1.34694000
H       -1.06085700      -1.84728100      -0.12031900
H        1.01008500      -1.36160300      -1.51351400
H        1.04370300       1.33244300       0.01364500
H        2.32903200       0.68817700      -1.11482900
H        1.33476300      -0.67171200       1.48917700
H        2.61153900      -1.32316800       0.36264400
