19
Properties=species:S:1:pos:R:3 pbc="F F F"
C       -2.64136200       0.09579300      -0.60341000
C       -1.12223000       0.08677100      -0.70891100
C       -0.44421100      -0.07830700       0.67020000
N        1.03299500      -0.08190100       0.65184900
C        1.62177300      -1.23751600      -0.02538100
C        1.63024400       1.18861100       0.23970800
H       -3.10050000       0.21396300      -1.58294600
H       -2.98538100       0.91343900       0.02758500
H       -3.01024200      -0.83289100      -0.17151900
H       -0.78354700       1.01726400      -1.17544900
H       -0.80747400      -0.72490200      -1.37241400
H       -0.78282000      -1.02037800       1.12794800
H       -0.77632500       0.73419000       1.33485100
H        1.18065500      -2.15941200       0.36288100
H        2.69983100      -1.26492700       0.16215600
H        1.47855800      -1.22955600      -1.12218800
H        1.19057800       2.00860800       0.81372000
H        1.49297600       1.41579900      -0.83417700
H        2.70744100       1.16999600       0.43337400
