17
Properties=species:S:1:pos:R:3 pbc="F F F"
C        0.54003900       0.53062200       1.51928000
C       -0.31482600      -0.45103500       0.70919500
C       -0.45234900      -0.08837500      -0.77982000
N       -0.79431200       1.27471500      -1.19421700
C        0.53218900       0.74627700      -1.52270600
C        0.22300900      -1.88293000       0.85476500
H        0.50523100       0.27554400       2.57637700
H        0.18175700       1.55297900       1.41232400
H        1.58205600       0.50288500       1.20697100
H       -1.33125600      -0.43605300       1.13940500
H       -0.97933500      -0.85903800      -1.35768100
H       -0.73659400       1.92192800      -0.40458000
H        1.38502200       1.16994700      -0.98994600
H        0.70744300       0.55870400      -2.58347700
H        1.23414200      -1.96417200       0.46042100
H       -0.40417700      -2.59009200       0.31517500
H        0.24752900      -2.18300100       1.90024100
