18
Properties=species:S:1:pos:R:3 pbc="F F F"
C       -0.31605400       1.76318600       1.66702400
C       -0.62905600       0.47333100       0.91890800
C        0.08175800       0.35979500      -0.45204800
C       -0.51526600      -0.79395200      -1.29289800
O       -0.27225600      -2.06727300      -0.71944900
C        1.59911300       0.19451100      -0.30754800
H       -0.86525900       1.80480500       2.60540800
H       -0.59394600       2.63395900       1.07646900
H        0.74380900       1.84135200       1.89804500
H       -1.71198000       0.40726900       0.76113400
H       -0.35821300      -0.38366200       1.54670700
H       -0.11178700       1.29338700      -1.00551400
H       -1.60936000      -0.63562700      -1.41781900
H       -0.07110400      -0.79940000      -2.30003800
H       -0.51563700      -2.05293000       0.21517600
H        1.83779400      -0.74283700       0.18992200
H        2.03389700       1.00699400       0.27059600
H        2.07686500       0.18366100      -1.28511800
