19
Properties=species:S:1:pos:R:3 pbc="F F F"
C       -1.04441100      -1.84914000       1.98847700
C        0.08665700      -2.05375800       1.03005000
C        0.35262700      -1.33628000      -0.07005200
C       -0.43568100      -0.16634700      -0.60159600
C        0.46055600       0.95501100      -1.11889500
C       -0.08749800       2.33956800      -1.28435700
C        0.91056700       2.05356400      -0.20594700
H       -0.67362100      -1.79514300       3.01299800
H       -1.73961100      -2.69026200       1.94809000
H       -1.60523600      -0.94135400       1.78092100
H        0.74992100      -2.88524600       1.27025400
H        1.21922700      -1.62281500      -0.66705200
H       -1.11485700       0.22533200       0.16091800
H       -1.07367200      -0.51733300      -1.42812600
H        1.18480600       0.63677400      -1.87136700
H       -1.11416600       2.52316800      -0.98403700
H        0.24027800       2.92312500      -2.13887200
H        0.55433600       2.04379900       0.81883000
H        1.91569500       2.44425200      -0.32862900
