16
Properties=species:S:1:pos:R:3 pbc="F F F"
C       -0.76691300       1.20160300      -1.69684400
N       -0.72533600       1.60313600      -0.29320600
C        0.22878900       0.84249000       0.53563000
C       -0.11748400      -0.64232800       0.68528900
C        0.56454700      -1.68459000      -0.13322200
N        0.87634900      -1.53818100       1.28881900
H       -1.47490900       1.83638500      -2.23539300
H       -1.07414100       0.15137800      -1.84705300
H        0.21914200       1.32649600      -2.15210700
H       -1.66184900       1.54238200       0.11324100
H        0.25668200       1.31271100       1.53164300
H        1.23511600       0.94882800       0.10601800
H       -1.14661200      -0.84657900       1.00651600
H        1.33158400      -1.37494900      -0.84657500
H        0.03469700      -2.59982400      -0.40212900
H        1.76956700      -1.05455200       1.41143500
