14
Properties=species:S:1:pos:R:3 pbc="F F F"
C       -1.32778800      -0.88585700      -1.93193500
C        0.18709300      -0.87274500      -1.79285500
C        0.71760500      -0.27905200      -0.52244600
C       -0.00555700       0.23700100       0.48769300
C        0.63459700       0.79823600       1.70042400
O        0.02658000       1.27218600       2.63486700
H       -1.61556200      -1.33519200      -2.87961800
H       -1.73393000       0.12264500      -1.90165100
H       -1.79152700      -1.46053600      -1.13337900
H        0.63092800      -0.32810100      -2.63739300
H        0.57607500      -1.89629700      -1.88195800
H        1.80763600      -0.27655400      -0.42969400
H       -1.09243600       0.25586900       0.43984200
H        1.77047400       0.75518100       1.69962500
