18
Properties=species:S:1:pos:R:3 pbc="F F F"
N       -1.68454300       1.29005300       0.44506200
C       -0.22098300       1.20887400       0.44888500
C        0.26736000      -0.24150700       0.64527600
C       -0.28617300      -1.20139000      -0.43115800
N        0.19217100      -0.86827500      -1.77604400
C        1.79753900      -0.29330000       0.70678000
H       -1.98855300       2.25349300       0.33091300
H       -2.06642000       0.93225800       1.31720300
H        0.22222800       1.84449800       1.24539300
H        0.15490600       1.61014400      -0.50301100
H       -0.12514900      -0.59177900       1.61578000
H       -1.39389600      -1.19939000      -0.37768700
H        0.03420900      -2.22700000      -0.19478700
H       -0.13703000       0.05481900      -2.04785300
H       -0.15773600      -1.54321800      -2.45109000
H        2.23267200      -0.00165300      -0.24637500
H        2.14315500      -1.29927800       0.93665700
H        2.18176300       0.37860600       1.47303100
