16
Properties=species:S:1:pos:R:3 pbc="F F F"
C       -0.23634900      -1.09071000      -1.84541000
C       -0.83810600      -0.81120400      -0.46878500
C       -0.36919600       0.50271300       0.12401900
C       -1.18913400       1.55497100       0.24794200
C        1.07970300       0.57481400       0.57481000
O        1.41204700      -0.49911600       1.44514900
H       -0.60017700      -2.03963000      -2.23426700
H        0.84892700      -1.14174800      -1.79543100
H       -0.50488700      -0.31138200      -2.55556800
H       -0.55978700      -1.62505300       0.21082700
H       -1.93010000      -0.81222800      -0.54203800
H       -2.21961900       1.51073600      -0.08468900
H       -0.84428000       2.48912300       0.67733700
H        1.28045900       1.54664200       1.07133800
H        1.75601100       0.50631800      -0.29316400
H        0.79557500      -0.51335000       2.18901100
