16
Properties=species:S:1:pos:R:3 pbc="F F F"
C        0.21556100       1.94683500      -1.33595200
C       -0.18603700       0.51323700      -1.01600800
C        0.25335800       0.06870000       0.39363500
C       -0.27464600      -1.34211200       0.74916100
O       -1.69605200      -1.36784800       0.77909200
O        1.68369000       0.08391000       0.50856500
H       -0.07906800       2.21636000      -2.34803400
H        1.29209600       2.07634200      -1.24972800
H       -0.25826900       2.64579200      -0.64971700
H        0.25018600      -0.16600200      -1.75841000
H       -1.27139400       0.40152100      -1.09732100
H       -0.12537200       0.79194900       1.14243800
H        0.13280000      -1.66100900       1.72816800
H        0.05006600      -2.08093800       0.00121800
H       -2.02077900      -0.78108000       1.47475800
H        2.07921300      -0.29139200      -0.28964300
