18
Properties=species:S:1:pos:R:3 pbc="F F F"
C        0.53485400      -2.55229000       0.29286000
N        0.07705400      -1.24558800      -0.17077600
C        0.45353700      -0.14411600       0.72706000
C       -0.04363500       1.22082900       0.21005900
N       -1.52228300       1.27516800       0.22296800
C        0.53103700       1.55270000      -1.18159200
H        0.19199000      -3.32667600      -0.39753200
H        0.16831700      -2.80935100       1.30351000
H        1.62785100      -2.58065200       0.32347000
H       -0.93863400      -1.25975900      -0.28653900
H        1.55075100      -0.12010600       0.81179000
H        0.06646600      -0.30669000       1.75471400
H        0.31010300       1.99033900       0.92118700
H       -1.90418400       0.62592100      -0.46102200
H       -1.83632000       2.20955900      -0.02874500
H        0.21627200       0.81504500      -1.91633600
H        1.61882900       1.56220800      -1.16204900
H        0.19040200       2.53036700      -1.51811700
