16
Properties=species:S:1:pos:R:3 pbc="F F F"
C       -1.04260800      -0.77560100      -1.56313300
C       -1.20613500      -1.27832900      -0.13541600
C       -0.57387100      -0.34558500       0.91783800
N        0.88868400      -0.22741500       0.78200500
N        1.50605000       0.94348500       0.43348000
C        0.88835400       1.87303700      -0.22602300
H       -1.45500100      -1.48945900      -2.27365600
H        0.00771000      -0.62687000      -1.80144200
H       -1.55636900       0.17340200      -1.70456200
H       -0.75661700      -2.27313200      -0.04560600
H       -2.27009600      -1.39966200       0.09467400
H       -0.79309200      -0.74804900       1.91970400
H       -1.03364600       0.64994300       0.86705100
H        1.40916700      -0.73399400       1.50314700
H        1.45708000       2.76276700      -0.49716300
H       -0.16672000       1.83143400      -0.53014200
