11
Properties=species:S:1:pos:R:3 pbc="F F F"
N       -1.73577000      -0.47222300      -0.42350900
C       -0.27378400      -0.45151200      -0.51455300
C        0.31973900       0.48159300       0.54679000
O        1.73740300       0.50717200       0.47597200
H       -2.13272600      -1.07165900      -1.14241000
H       -2.11734400       0.46370200      -0.53834700
H        0.07813300      -0.13971000      -1.51892100
H        0.10383900      -1.47438600      -0.36150600
H       -0.00676500       0.16664900       1.55898100
H       -0.03538600       1.51229500       0.39738500
H        2.08568100      -0.38919600       0.56817700
