16
Properties=species:S:1:pos:R:3 pbc="F F F"
C       -2.68717400      -0.53106300       0.43158700
C       -1.16469500      -0.55028800       0.46301100
C       -0.55579000       0.84708700       0.28968300
C        0.97774900       0.82986800       0.31545700
C        1.57633800       0.07083600      -0.86546100
O        2.49919100      -0.69748400      -0.77972800
H       -3.08966400      -1.53229900       0.56697600
H       -3.05478800      -0.14712700      -0.51792900
H       -3.08607100       0.10092700       1.22247900
H       -0.78837100      -1.21037600      -0.32566100
H       -0.82268500      -0.97857900       1.41065300
H       -0.92449300       1.50704000       1.08149100
H       -0.89616400       1.28127200      -0.65747000
H        1.34681200       0.40276800       1.25147000
H        1.35059500       1.86094800       0.26925300
H        1.09274000       0.29665400      -1.86910300
