14
Properties=species:S:1:pos:R:3 pbc="F F F"
C       -1.06145200       0.16458200       2.19588200
C       -0.48397800      -0.43749700       1.32183400
C        0.21436900      -1.19521100       0.28341200
C        0.55638600      -0.38333700      -0.96473000
C       -0.36588200       0.67961500      -1.47742900
C        0.94764100       1.05931500      -0.87068800
H       -1.56897700       0.70184800       2.95858700
H       -0.40561400      -2.05899300       0.00141200
H        1.13627100      -1.61348200       0.71360500
H        1.07678700      -0.97195700      -1.72277900
H       -1.26224200       0.89114700      -0.90449000
H       -0.47916300       0.78150600      -2.55226300
H        0.93109600       1.52555600       0.10850500
H        1.72934200       1.41957600      -1.53226100
