16
Properties=species:S:1:pos:R:3 pbc="F F F"
C       -2.61302000      -0.80874000      -0.23079000
C       -1.09533800      -0.87926600      -0.34088500
C       -0.41363900       0.37817600       0.20434500
C        1.10947500       0.37011600       0.11305700
N        1.84563400      -0.59350300      -0.34896800
N        1.71763100       1.51069400       0.62271300
H       -3.07041100      -1.71370000      -0.62407200
H       -3.00733000       0.03745500      -0.78982700
H       -2.92561800      -0.69745200       0.80549700
H       -0.81212000      -1.02355400      -1.38838900
H       -0.73125600      -1.75633600       0.20339900
H       -0.69825200       0.52532300       1.25300400
H       -0.79122500       1.26102800      -0.32650800
H        1.29727900      -1.39457700      -0.66529700
H        1.16878800       2.35305400       0.72290800
H        2.70242200       1.62670500       0.41870800
