16
Properties=species:S:1:pos:R:3 pbc="F F F"
C       -0.10883100       0.13843200      -2.21740500
C       -0.61983900       0.97845600      -1.05154900
C       -0.14542100       0.51924500       0.34497600
C       -0.58199900      -0.90704300       0.73745400
O        0.04104400      -1.24779200       1.96197100
O        1.28885000       0.59865800       0.45715100
H       -0.46430500       0.54524700      -3.16129100
H       -0.44978100      -0.89292100      -2.15170500
H        0.97978000       0.12880100      -2.25423000
H       -1.71516200       0.98167700      -1.06285900
H       -0.30868300       2.01724900      -1.19849900
H       -0.54032500       1.22904600       1.09517100
H       -0.30142800      -1.63871700      -0.05138400
H       -1.67577300      -0.96955500       0.86152900
H        0.87876100      -0.75718400       2.00197700
H        1.69429200       0.17489300      -0.31255200
