12
Properties=species:S:1:pos:R:3 pbc="F F F"
C        0.48091900       2.08384100       0.28018400
C        0.51952300       0.61312000      -0.13047700
O        1.53800000       0.08122300      -0.52957000
C       -0.79214800      -0.16024000      -0.02769100
C       -0.87492800      -1.56644200      -0.49515600
O       -0.76709700      -1.28179200       0.87961700
H        1.44473400       2.55782000       0.11960900
H        0.21812600       2.17201300       1.33372800
H       -0.27770900       2.62079300      -0.28882000
H       -1.71811600       0.43268700       0.04486400
H        0.00877400      -2.02957300      -0.95028400
H       -1.84322500      -1.97086100      -0.82063800
