15
Properties=species:S:1:pos:R:3 pbc="F F F"
C       -2.30412800       0.29382500      -0.21111600
C       -0.81448000       0.08398400      -0.11025900
C       -0.14790600      -0.62778000      -1.06118000
C        1.27180300      -0.94706300      -1.15194100
C        2.25362100      -0.61262700      -0.29837300
C       -0.20223700       0.68621500       1.04228500
C        0.16997500       1.24711100       2.05328500
H       -2.70675800      -0.16677300      -1.11053800
H       -2.54771400       1.35679500      -0.22977600
H       -2.81624800      -0.13324500       0.65233800
H       -0.75335800      -1.02051900      -1.87802500
H        1.54001300      -1.53220400      -2.03234800
H        2.06951100      -0.03448900       0.59706600
H        3.27380600      -0.92136400      -0.49237400
H        0.58085700       1.70981200       2.91745800
