12
Properties=species:S:1:pos:R:3 pbc="F F F"
C        0.70738900      -0.97243800       1.11728300
C        0.16423400       0.27333400       0.40682000
C       -1.30377600       0.32956300       0.41326700
C       -2.51077800       0.37854400       0.39821500
C        0.71762300       0.39690600      -1.03724400
O        1.71546400      -0.15755100      -1.41088300
H        1.79379600      -0.97981500       1.07330200
H        0.34251600      -1.87837700       0.64001600
H        0.39977900      -0.98785900       2.16019100
H        0.53201300       1.17166500       0.93884400
H       -3.57269700       0.41397000       0.40471200
H        0.13272900       1.08537100      -1.72004400
