16
Properties=species:S:1:pos:R:3 pbc="F F F"
C       -2.09999700      -1.35809500       0.02176400
O       -0.80276500      -0.81318400      -0.08145500
C       -0.73011200       0.54759300       0.32196700
C        0.69047900       1.06663900       0.18443600
C        1.86017800       0.17120600       0.45980000
C        1.56622100       0.60439900      -0.94039200
H       -2.06143900      -2.40147200      -0.30633400
H       -2.82185000      -0.80959900      -0.61215100
H       -2.47237000      -1.32351900       1.06284400
H       -1.08245000       0.64942700       1.37506500
H       -1.43081200       1.16134100      -0.29092200
H        0.80363300       2.11110600       0.48363900
H        1.65055400      -0.86128700       0.71649100
H        2.72572400       0.59950400       0.95642000
H        1.15922000      -0.13876700      -1.61698700
H        2.23129300       1.32828800      -1.40187500
