14
Properties=species:S:1:pos:R:3 pbc="F F F"
O       -2.23215400      -1.27608200      -0.89664200
C       -0.82087800      -1.30693200      -0.97122100
C       -0.24126000      -0.15848300      -0.19745700
C        1.05578900      -0.07270200       0.15573700
C        1.67064400       1.03592100       0.88802300
C        1.04995800       2.14483400       1.31789300
H       -2.60806200      -2.01167400      -1.39632100
H       -0.50079400      -1.25417700      -2.03898700
H       -0.43491200      -2.28027500      -0.59408900
H       -0.93290400       0.63999600       0.06502200
H        1.72750200      -0.88894800      -0.11411300
H        2.73564900       0.92423600       1.09150900
H       -0.00710000       2.31155800       1.14659000
H        1.59233100       2.91211300       1.85567200
