17
Properties=species:S:1:pos:R:3 pbc="F F F"
C       -0.41798900       1.30442000       1.55701800
C       -0.84694700       1.24743000       0.10673500
C        0.03288600       1.79490300      -0.98111900
C       -0.21096100       0.31588000      -0.88879000
C        0.93281000      -0.62416400      -0.51640600
C        0.46586400      -1.90080200       0.02917000
C        0.08794200      -2.95819100       0.47503000
H       -0.73763800       2.23969000       2.01554000
H        0.66264700       1.23809800       1.65858100
H       -0.86056400       0.48928000       2.12822800
H       -1.91730900       1.40720900      -0.03744700
H        1.01478600       2.16117400      -0.69793300
H       -0.43178600       2.34185400      -1.79595600
H       -0.88788800      -0.09834900      -1.63788300
H        1.54680200      -0.82670500      -1.40623600
H        1.59817900      -0.14479800       0.21226900
H       -0.24886700      -3.88430200       0.87101400
