17
Properties=species:S:1:pos:R:3 pbc="F F F"
C        0.94984100       0.96129800       1.45473200
C        0.15581800      -0.13719000       0.73316000
C        0.05110600       0.15989900      -0.76805700
N       -1.04224800      -0.43930700      -1.53776100
C       -1.05384400       1.00592900      -1.29886400
C        0.77866500      -1.51947500       0.97765100
H        1.00178800       0.76473300       2.52363600
H        0.48461500       1.93475600       1.31217700
H        1.96850600       1.01876500       1.07598200
H       -0.86565600      -0.14645400       1.14740400
H        1.00892000       0.18089300      -1.30176900
H       -1.70475200      -0.90956600      -0.91636600
H       -1.80323000       1.38953300      -0.60314900
H       -0.89339300       1.62564800      -2.18239500
H        1.79809600      -1.56035100       0.59889700
H        0.20414900      -2.29604200       0.47717900
H        0.80717700      -1.74953500       2.04099400
