9
Properties=species:S:1:pos:R:3 pbc="F F F"
C       -1.58162500       0.00320800      -0.63369700
O       -0.17940200       0.29044900      -0.53565200
N        0.37056900      -0.27892200       0.59284700
C        1.63511700      -0.04661800       0.72452900
H       -1.94550600       0.48225100      -1.54560700
H       -2.12976700       0.40449900       0.23107300
H       -1.76085400      -1.07996900      -0.69575300
H        2.14194600      -0.46408600       1.59368600
H        2.21447100       0.54662800       0.00690200
