19
Properties=species:S:1:pos:R:3 pbc="F F F"
C       -0.08583700       2.23278800       0.88869200
C       -0.47402000       0.76074100       0.94390700
C        0.11199200      -0.12438700      -0.20445400
C       -0.36678900      -1.51571800       0.01331000
C       -0.76237700      -2.64229600       0.19749400
C       -0.38470700       0.36009100      -1.58760900
C        1.65877200      -0.12114100      -0.17210600
H       -0.53168300       2.76798200       1.72448000
H       -0.43224500       2.70493200      -0.02800100
H        0.99205800       2.36656100       0.94881800
H       -1.56498600       0.67657100       0.92215000
H       -0.15143800       0.34116800       1.90186700
H       -1.10821400      -3.63407500       0.35602400
H       -1.47150000       0.38123100      -1.62429000
H       -0.03238900      -0.30277900      -2.37451900
H       -0.01617400       1.36078200      -1.80264400
H        2.02761400      -0.43426600       0.80190100
H        2.04808300       0.87281400      -0.38090300
H        2.05866600      -0.80138500      -0.92028400
