21
Properties=species:S:1:pos:R:3 pbc="F F F"
C        1.18903700       1.08379700      -1.51229100
C        0.44139200       0.06791300      -0.63966700
C       -1.08491800       0.31361100      -0.64191800
C       -1.74867700       0.05176600      -1.98809200
C        0.99831000       0.08985400       0.80646400
C        0.45371900      -1.01669000       1.66637700
C       -0.07863400      -0.84494600       2.87705900
H        2.26038700       0.89160900      -1.49854100
H        1.02736600       2.09978200      -1.15665000
H        0.85478000       1.03500800      -2.54609900
H        0.62476400      -0.93729800      -1.05344600
H       -1.54294300      -0.33317500       0.11316900
H       -1.28683200       1.34319700      -0.32831300
H       -1.57919400      -0.97219900      -2.31566400
H       -1.36479200       0.71571500      -2.75964600
H       -2.82354300       0.20740300      -1.92174300
H        0.79871900       1.06053000       1.27132200
H        2.09131800      -0.01175600       0.75593500
H        0.52685600      -2.02425200       1.25390800
H       -0.17066700       0.13971500       3.32065500
H       -0.43759600      -1.68610400       3.45752200
