15
Properties=species:S:1:pos:R:3 pbc="F F F"
C       -2.92738300      -0.48539900      -0.54427900
C       -1.46981100      -0.48305100      -0.52254200
C       -0.26008700      -0.48712000      -0.50845000
C        1.20715300      -0.48823700      -0.49469900
C        1.79978900       0.76301600       0.17113000
N        1.45181200       0.81092300       1.59037600
H       -3.33210300      -0.43328200       0.46826300
H       -3.30698200      -1.39502800      -1.01323700
H       -3.30947600       0.36931200      -1.10573100
H        1.57606900      -0.56073300      -1.52687700
H        1.56170500      -1.38554900       0.02855200
H        1.45645900       1.66625700      -0.37489900
H        2.89594800       0.73926000       0.06952900
H        0.44499900       0.72026300       1.70684800
H        1.75273300       1.68778300       2.00795400
