15
Properties=species:S:1:pos:R:3 pbc="F F F"
N        0.03532800      -0.04030200       2.04478400
C       -0.53285200      -0.01479900       0.68838200
C       -0.11703000       1.23351000      -0.16123200
C        0.34631900       0.65345900      -1.46643700
C        0.35725600      -0.68352400      -1.45562800
C       -0.09473600      -1.25107100      -0.14148400
H       -0.28237600       0.76271000       2.58239400
H        1.05188900      -0.01922100       2.00678100
H       -1.63189300      -0.01970600       0.79667200
H        0.68502300       1.80537100       0.32453300
H       -0.94870500       1.93604000      -0.29708600
H        0.64879200       1.27150000      -2.30728900
H        0.67000200      -1.30866600      -2.28715400
H        0.71757000      -1.79877500       0.35316600
H       -0.91133800      -1.97258800      -0.26710900
