21
Properties=species:S:1:pos:R:3 pbc="F F F"
C       -2.85883600       0.50212100       1.86491900
C       -1.36083500       0.46733400       1.58823400
C       -0.98345200      -0.58804800       0.54186900
C        0.52774700      -0.66798400       0.25874300
C        1.06750500       0.53687100      -0.46602600
C        1.79849000       0.54163000      -1.58937800
C        2.23974900      -0.64329700      -2.39067400
H       -3.09975300       1.26170200       2.60578000
H       -3.21052700      -0.45675600       2.24094600
H       -3.41840200       0.72807300       0.95933600
H       -0.82218000       0.26412600       2.52032700
H       -1.03179700       1.45629600       1.25331500
H       -1.52123100      -0.38783300      -0.39024200
H       -1.32614000      -1.56976200       0.88799400
H        0.73417200      -1.57820900      -0.31198100
H        1.05980100      -0.77784100       1.21442600
H        0.83724200       1.49998400      -0.00943400
H        2.12186500       1.50638600      -1.98188600
H        1.84219600      -1.57860400      -2.00551800
H        3.32904200      -0.71765400      -2.39907800
H        1.92351000      -0.54167300      -3.43010600
