19
Properties=species:S:1:pos:R:3 pbc="F F F"
C       -1.24933500       0.51166200       1.44289100
C       -1.55303900       0.59593100      -0.03644800
C       -0.68326800       1.40156100      -0.95871900
C       -0.71374700      -0.09538100      -1.07795300
C        0.47998500      -1.00082900      -0.76390300
C        1.58882300      -0.40529800       0.05836700
C        2.21114200      -1.04334900       1.05123700
H       -1.66985100       1.36631200       1.97317700
H       -0.17852900       0.49504200       1.62683400
H       -1.68102800      -0.38945000       1.87826600
H       -2.62201400       0.62873200      -0.25985400
H        0.20194600       1.86639000      -0.53821300
H       -1.16227500       1.98264100      -1.74151200
H       -1.28702700      -0.46706400      -1.93096900
H        0.12481900      -1.92411800      -0.29054000
H        0.91440200      -1.31163800      -1.72660500
H        1.93055000       0.58937500      -0.22894500
H        1.90915400      -2.03650000       1.36312600
H        3.03649500      -0.58549500       1.58241700
