18
Properties=species:S:1:pos:R:3 pbc="F F F"
C       -1.50273500       1.34786600      -0.67009400
C       -0.05339800       1.56178900      -0.25135300
C        0.71121500       0.29172200       0.15827300
C        0.12395800      -0.59391800       1.27727100
C        0.28213700      -1.82551500       0.37725000
C        0.70224500      -0.92524700      -0.79125400
H       -1.96832500       2.29790300      -0.92484000
H       -2.08509400       0.89593600       0.13013700
H       -1.57318300       0.69971500      -1.54118300
H       -0.02532300       2.26794500       0.58685200
H        0.48750800       2.04529400      -1.07311500
H        1.74355000       0.58720200       0.39968100
H       -0.91479800      -0.36646300       1.52701500
H        0.69697500      -0.61291900       2.20838100
H       -0.62881900      -2.40823500       0.21699700
H        1.06576400      -2.51250700       0.70608800
H       -0.04376100      -0.86665900      -1.58683800
H        1.66497400      -1.16739500      -1.24972800
