14
Properties=species:S:1:pos:R:3 pbc="F F F"
N       -2.18770500      -1.10406400      -0.27614600
C       -0.72445000      -1.09222700      -0.29965800
C       -0.18008400       0.27447400       0.12641300
C        1.35126700       0.32167800       0.12968000
O        1.83054500       1.60253800       0.50716000
H       -2.54593600      -2.00694400      -0.57565200
H       -2.56424500      -0.38487100      -0.88821400
H       -0.32211300      -1.35075600      -1.30364800
H       -0.35566100      -1.86952200       0.38558000
H       -0.55714200       0.52512600       1.12205800
H       -0.56781100       1.04740700      -0.54951200
H        1.74375300       0.04862100      -0.87453400
H        1.76301200      -0.40681600       0.84427500
H        1.39531900       2.28234600      -0.02322200
