17
Properties=species:S:1:pos:R:3 pbc="F F F"
C       -2.43328700      -0.91801900       0.71449200
C       -1.34542400      -0.16186100       0.86425000
C       -0.57021200       0.44811700      -0.27413600
N        0.88765300       0.41123300      -0.03416700
C        1.40844100      -0.95668400       0.07154200
C        1.62958200       1.21028200      -1.01447400
H       -2.97412400      -1.30386900       1.57012100
H       -2.81318400      -1.17461000      -0.26820300
H       -0.99159300       0.07404700       1.86832900
H       -0.86435800       1.50748500      -0.37573800
H       -0.84827400      -0.04095300      -1.23221000
H        0.87201900      -1.49863300       0.85396700
H        2.46981400      -0.92868600       0.33325300
H        1.30785300      -1.52943800      -0.86849300
H        1.26862800       2.24273900      -1.00392900
H        1.53232800       0.82971700      -2.04825000
H        2.69271800       1.21256100      -0.75972200
