16
Properties=species:S:1:pos:R:3 pbc="F F F"
C       -2.16440500       1.44697900      -0.97817500
C       -0.80421700       1.61880900      -0.30395600
C       -0.21706100       0.31801700       0.16593700
C        1.02848300      -0.09668800      -0.13374500
C        1.64488000      -1.34657600       0.31560000
C        1.08134900      -2.27445900       1.10389200
H       -2.57036400       2.41174000      -1.27522700
H       -2.87588400       0.97413300      -0.30405300
H       -2.08487200       0.82703500      -1.86828800
H       -0.92537500       2.28920900       0.55904500
H       -0.10944500       2.11856900      -0.98681300
H       -0.85743700      -0.30430200       0.79152900
H        1.65147400       0.53716200      -0.76525700
H        2.66187300      -1.51605600      -0.03858600
H        0.07399600      -2.16362800       1.48810800
H        1.62186000      -3.17034900       1.38222400
