17
Properties=species:S:1:pos:R:3 pbc="F F F"
C        1.35538900      -2.11229000      -1.30083500
C        0.92837800      -0.77849400      -0.77131100
C        0.05734900      -0.61944100       0.23225000
C       -0.38438900       0.69936400       0.83951300
N       -1.83479900       0.63580100       1.13046500
C       -0.02299500       1.93779500      -0.00446300
H        2.43464000      -2.24212700      -1.20237900
H        1.12248000      -2.20409300      -2.36314800
H        0.86565700      -2.92710000      -0.77246900
H        1.37384800       0.09053700      -1.25457000
H       -0.37639100      -1.50498600       0.69698100
H        0.12902600       0.80201000       1.81871200
H       -2.36010500       0.50585900       0.26908200
H       -2.14443300       1.50316100       1.56263600
H       -0.45782200       1.88005900      -1.00011700
H        1.05427900       2.04387300      -0.11169400
H       -0.39997700       2.84059700       0.47278700
