21
Properties=species:S:1:pos:R:3 pbc="F F F"
C       -1.78531900       0.40099000      -0.38683400
C       -0.25559000       0.40179100      -0.26038600
C        0.25855200       1.84637200      -0.04764800
C        1.76417000       2.00337100      -0.22337200
C        0.20673500      -0.53353600       0.87790900
C        0.01263100      -2.00908700       0.65227100
C       -0.23867000      -2.62125700      -0.50555000
H       -2.10604000       1.02501000      -1.21915100
H       -2.25103900       0.78763300       0.51801900
H       -2.16403500      -0.60457000      -0.55249000
H        0.16730200       0.03196700      -1.20747100
H       -0.03389000       2.19637300       0.94827000
H       -0.24815600       2.50428900      -0.76164400
H        2.31904400       1.42254000       0.51081100
H        2.05598000       3.04529500      -0.10851200
H        2.07859200       1.67519100      -1.21224400
H       -0.30361600      -0.25279000       1.80820600
H        1.27457100      -0.36566400       1.07635200
H        0.12664500      -2.62204400       1.54830200
H       -0.35505500      -2.07613200      -1.43406600
H       -0.33535800      -3.69896400      -0.55272600
