17
Properties=species:S:1:pos:R:3 pbc="F F F"
C       -1.34158600       0.33967000       1.81028900
C        0.14323500       0.58080600       1.57922400
C        0.60400600       0.37502300       0.13884500
N       -0.28569000       0.79661300      -0.95159300
C        0.01142400      -0.63480200      -0.79150600
C        0.86603100      -1.32636500      -1.83347400
H       -1.61792600       0.60409200       2.82914800
H       -1.60401600      -0.70525400       1.65552000
H       -1.93843700       0.94014600       1.12829100
H        0.73096600      -0.07157800       2.23781500
H        0.38969400       1.60682700       1.87989200
H        1.66835800       0.60187600      -0.01572000
H        0.25730700       1.19014200      -1.72379600
H       -0.84238200      -1.22363100      -0.43847500
H        1.70221100      -0.69933900      -2.13792400
H        0.28415200      -1.56311400      -2.72427000
H        1.27125000      -2.26244800      -1.44960100
