14
Properties=species:S:1:pos:R:3 pbc="F F F"
C       -2.21685500      -1.02715300       0.66953100
C       -0.70026300      -1.00272900       0.49522800
C       -0.07319200       0.25200500       1.03490400
C        0.82757600       1.00808100       0.38026100
C        1.31265000       0.73994200      -0.94010100
C        1.76864700       0.57101800      -2.05146800
H       -2.63140600      -1.96231500       0.29918700
H       -2.68578400      -0.21220600       0.12297600
H       -2.49162800      -0.92799700       1.71805200
H       -0.43987700      -1.12321000      -0.56004700
H       -0.27131500      -1.86694200       1.02236900
H       -0.37219600       0.55298000       2.03884900
H        1.23967000       1.89756300       0.85921100
H        2.14115400       0.39514700      -3.03072600
