13
Properties=species:S:1:pos:R:3 pbc="F F F"
N       -2.00348400      -0.84944000      -0.39940300
C       -0.64285400      -0.67533000      -0.47775700
C        0.06895500       0.26585100       0.21615200
C        1.53002500       0.29896800       0.04745500
O        2.15824800      -0.46138600      -0.67154800
C       -0.59794100       1.26066400       1.13709100
H       -2.46514500      -1.43056600      -1.08521700
H       -2.56111300      -0.13338200       0.04876500
H       -0.11249100      -1.37819000      -1.12010600
H        2.06009800       1.10458600       0.64490500
H       -1.38401900       1.82393900       0.62919600
H        0.13166400       1.97507300       1.51331300
H       -1.05970000       0.77478900       1.99970200
