19
Properties=species:S:1:pos:R:3 pbc="F F F"
C        0.20663400       1.13019200       2.14229000
C       -0.13662700       1.14184200       0.66794100
C        0.80902300       1.76178800      -0.32099900
C        0.61595500       0.27225600      -0.30030500
C       -0.10384500      -0.40765800      -1.45546400
C       -0.70748000      -1.74981100      -1.13700600
C       -0.73311200      -2.33578300       0.06022900
H       -0.06835300       2.07231500       2.61635500
H        1.27290200       0.97764000       2.29522100
H       -0.32429500       0.33374500       2.66335300
H       -1.19773000       1.28234500       0.45563200
H        1.74830600       2.15707100       0.05243200
H        0.38392100       2.32052500      -1.14930200
H        1.44353900      -0.30348000       0.11691900
H        0.59002300      -0.53402500      -2.30011200
H       -0.89677800       0.25177300      -1.83429000
H       -1.16105800      -2.26374200      -1.98640800
H       -0.29983800      -1.86453100       0.93407700
H       -1.19392000      -3.30659700       0.19600700
