17
Properties=species:S:1:pos:R:3 pbc="F F F"
N        0.12804800       1.85619000       0.66984500
C       -0.30716200       0.53872300       1.13444700
C        0.27828300      -0.61346800       0.28532000
C       -0.23350400      -0.60001200      -1.17379500
O       -1.63835500      -0.78223900      -1.24857700
C        1.81101700      -0.60143800       0.31705000
H       -0.25306300       2.58941400       1.26175500
H       -0.16618200       2.02524800      -0.28868200
H       -1.41755500       0.45140800       1.14976300
H        0.01872200       0.41558000       2.17703500
H       -0.06623600      -1.55353600       0.74439400
H        0.23130100      -1.42084900      -1.74048700
H        0.05656500       0.34607400      -1.67933000
H       -2.08225300      -0.13886100      -0.68068300
H        2.20040800       0.32088500      -0.10844400
H        2.21870700      -1.43550100      -0.25219900
H        2.17828100      -0.67810900       1.33844800
