17
Properties=species:S:1:pos:R:3 pbc="F F F"
C       -0.22713100      -1.00133600       2.25954200
C       -0.69033800      -1.24721600       0.82592100
C       -0.23796500      -0.16256900      -0.13644800
C       -1.12336000       0.59134800      -0.82522600
C       -0.76447200       1.67090400      -1.79406500
C        1.18575300       0.01168200      -0.27857700
C        2.39137400       0.11234900      -0.36388500
H       -0.56057500      -1.80445600       2.91384400
H       -0.62707300      -0.06565700       2.64443000
H        0.85771000      -0.94810700       2.31216000
H       -1.78233100      -1.32055800       0.79681800
H       -0.30172700      -2.21550900       0.48620200
H       -2.18709500       0.40942400      -0.67204200
H        0.31275700       1.78495900      -1.88236100
H       -1.18793500       2.62812300      -1.48280500
H       -1.17066200       1.45516800      -2.78454000
H        3.44377100       0.22563400      -0.45528300
