14
Properties=species:S:1:pos:R:3 pbc="F F F"
C        0.53732500      -0.32692700       1.83796700
C        0.15659100      -0.18931100       0.37298200
C       -1.29672000       0.19109800       0.06128600
O       -1.38730300       0.65564500      -1.26663500
C        0.96252400      -0.87110100      -0.67111100
O        1.10505700       0.53286700      -0.44670500
H        1.60096800      -0.52362600       1.94650900
H       -0.01104600      -1.14458800       2.30680100
H        0.30334900       0.58443800       2.38739200
H       -1.97100500      -0.67462700       0.18794900
H       -1.64232500       0.97098100       0.77523500
H       -0.52688300       1.05988300      -1.48166700
H        0.50793100      -1.13542200      -1.63322500
H        1.83865800      -1.46768600      -0.38901800
