18
Properties=species:S:1:pos:R:3 pbc="F F F"
C       -0.52277400      -0.43864800       2.15137700
C       -0.68716200       0.72940700       1.18607700
C        0.03924600       0.56895700      -0.17125900
C       -0.50053000      -0.64055900      -0.96985600
O       -0.07505200      -0.60516400      -2.32287300
C        1.56345700       0.50138300      -0.00064700
H       -1.04576300      -0.23462600       3.08334200
H        0.52413300      -0.61266800       2.38960600
H       -0.92963900      -1.35920600       1.73818800
H       -0.32553100       1.64347400       1.66915300
H       -1.75434300       0.88608800       0.99359300
H       -0.18731000       1.47315200      -0.75795900
H       -0.17921200      -1.59265300      -0.49695200
H       -1.60104900      -0.63224000      -0.97432700
H        0.88592800      -0.51352700      -2.35802700
H        1.86684800      -0.40499000       0.52007600
H        1.92739300       1.35339800       0.56975200
H        2.06554200       0.51187700      -0.96761400
