17
Properties=species:S:1:pos:R:3 pbc="F F F"
C       -2.47800100      -1.58365500       0.39350000
N       -1.02953300      -1.44509700       0.27289200
C       -0.57751900      -0.04831300       0.22154600
C        0.94384200       0.01654500       0.02853900
C        1.46985000       1.42433100       0.04004500
C        2.22549000       1.95844100      -0.91985300
H       -2.74544500      -2.64281000       0.40004400
H       -3.03183800      -1.09620500      -0.42972100
H       -2.82234300      -1.13731800       1.33073100
H       -0.70059100      -1.94582200      -0.55598100
H       -0.85737600       0.45220600       1.16122900
H       -1.08248900       0.51704400      -0.59027900
H        1.22267300      -0.48144300      -0.90635100
H        1.42379600      -0.55104300       0.83693100
H        1.20685000       2.02770000       0.91001900
H        2.50569200       1.39183800      -1.80031700
H        2.58582500       2.97743800      -0.84921100
