15
Properties=species:S:1:pos:R:3 pbc="F F F"
C       -1.58174100      -0.24855200       0.44862700
C       -0.04653200      -0.19618200       0.38827100
C        0.49192300      -1.41728700      -0.23753800
C        0.94173500      -2.41683000      -0.74571100
C        0.47193000       1.06126500      -0.35332800
N        0.17457200       2.28062300       0.39922300
H       -1.91724100      -1.14682300       0.96175100
H       -2.01352000      -0.25038100      -0.55019100
H       -1.97584500       0.61168400       0.98590500
H        0.33634800      -0.16042400       1.42249100
H        1.33351300      -3.29844400      -1.18991700
H        0.04392500       1.08624000      -1.37638900
H        1.56079400       0.98557600      -0.47121500
H       -0.82873500       2.42152400       0.48532800
H        0.57486300       3.09219800      -0.06425100
