18
Properties=species:S:1:pos:R:3 pbc="F F F"
C       -2.50818300      -0.30245300      -0.48816100
C       -1.54897800      -1.13920400      -1.29362700
C       -1.07986400       0.11083400      -0.59298800
N       -0.23029300       0.03512500       0.59319000
C        1.19259200      -0.07901200       0.29433800
C        2.00242700       1.17470600       0.15320100
C        2.17122100       0.30137300       1.36098700
H       -2.85622200      -0.71439100       0.45355200
H       -3.25541700       0.26902600      -1.02926200
H       -1.65626600      -1.12725700      -2.37343300
H       -1.26327200      -2.10036900      -0.87935400
H       -0.85460100       0.97555700      -1.22377100
H       -0.53567100      -0.73834900       1.18970200
H        1.48390400      -0.92082500      -0.35900800
H        1.49874800       2.12472900       0.29343000
H        2.80666800       1.19105100      -0.57580100
H        1.78060300       0.67064300       2.30308400
H        3.08829100      -0.27316200       1.44602600
