14
Properties=species:S:1:pos:R:3 pbc="F F F"
C        0.37798800      -0.78369700       1.43151600
C        0.00132900       0.22365900       0.33377900
C       -1.46700300       0.35209600       0.22549700
N       -2.60743500       0.48203200       0.15300600
N        0.54939400      -0.16444600      -0.98448500
C        1.98984100       0.04500700      -1.11511900
H        1.45828100      -0.83697600       1.54497800
H        0.01289800      -1.77823800       1.18763700
H       -0.04899800      -0.48671100       2.38651300
H        0.38396800       1.22961400       0.63685300
H        0.05982200       0.34799600      -1.72164100
H        2.53865900      -0.62516100      -0.44820500
H        2.29801600       1.07933700      -0.87951000
H        2.29071000      -0.17535400      -2.14031400
