21
Properties=species:S:1:pos:R:3 pbc="F F F"
C       -3.30591500      -1.28240300       1.18248000
C       -1.78570800      -1.21579900       1.11628000
C       -1.28148400       0.03516800       0.37819700
C        0.22124200       0.12568500       0.34935100
C        0.94514800       0.29612300      -0.76337300
C        2.44875800       0.39353700      -0.78720200
C        2.94734700       1.65401600      -1.49089400
H       -3.63211000      -2.17401500       1.71416400
H       -3.74139200      -1.30911400       0.18542700
H       -3.71388100      -0.41566300       1.69924800
H       -1.40170700      -2.11230400       0.61919500
H       -1.37450600      -1.22717600       2.13136000
H       -1.68712900       0.92504400       0.87994900
H       -1.67796200       0.04991900      -0.64224800
H        0.72938400       0.05392900       1.31203000
H        0.44000400       0.37075800      -1.72701700
H        2.85960400      -0.48434500      -1.30513500
H        2.84013100       0.36057800       0.23462900
H        2.58425100       1.69779400      -2.51574400
H        4.03504900       1.67709500      -1.51705000
H        2.60393500       2.54954000      -0.97783400
