18
Properties=species:S:1:pos:R:3 pbc="F F F"
C       -0.14334200       2.42762600       0.27221600
C       -0.45777500       1.07453100      -0.35378700
C       -0.07570500      -0.11683200       0.55736700
O       -0.71395300      -1.33417400       0.10524400
C       -0.27887700      -1.86430900      -1.13153900
C        1.44158900      -0.29542100       0.71056200
H       -0.45602100       3.23791500      -0.38315500
H        0.92319800       2.54243400       0.45577900
H       -0.65913200       2.54938400       1.22314900
H        0.05815500       0.99304800      -1.31610300
H       -1.52882900       1.01688100      -0.56988700
H       -0.50920300       0.06066300       1.56179200
H       -0.89793300      -2.74041400      -1.35173600
H        0.77775100      -2.18505100      -1.09727400
H       -0.39072400      -1.14037000      -1.95803000
H        1.94193200      -0.35901300      -0.25404200
H        1.66611100      -1.20176900       1.26829700
H        1.87099000       0.54611300       1.25034300
