13
Properties=species:S:1:pos:R:3 pbc="F F F"
C       -2.50430300      -0.03875700       0.85198200
N       -1.24364500       0.23770400       0.92783700
O       -0.57957800       0.11725900      -0.27413500
C        0.81711600       0.42181500      -0.12888200
C        1.77943700      -0.71896000       0.00057500
C        1.68401000       0.06344900      -1.28265500
H       -3.09807900       0.03879600       1.76196100
H       -2.99690200      -0.34441200      -0.07891300
H        1.00960300       1.35094500       0.42527800
H        1.37706700      -1.72564100      -0.00074900
H        2.66637700      -0.58240900       0.61168600
H        1.21946600      -0.42851700      -2.13011300
H        2.50705300       0.72396200      -1.53704700
