16
Properties=species:S:1:pos:R:3 pbc="F F F"
C       -2.27143900       0.56379000       0.65813700
C       -0.77276000       0.41832500       0.49966800
N       -0.13816000       1.11343700      -0.62954100
C       -0.17334600      -0.35571200      -0.63069100
C        1.12760700      -1.16180300      -0.48658800
N        2.14904600      -0.56294100       0.37602200
H       -2.52392000       1.50069500       1.15387800
H       -2.68163400      -0.24770700       1.25922700
H       -2.76638400       0.55322800      -0.30970500
H       -0.20817200       0.43619900       1.44202000
H        0.79244700       1.44502400      -0.36256400
H       -0.86800200      -0.77069000      -1.37176100
H        0.88556500      -2.16433700      -0.10044000
H        1.56710200      -1.31439900      -1.48298300
H        1.78787000      -0.39778200       1.31193300
H        2.47855600       0.31869700      -0.00812700
