19
Properties=species:S:1:pos:R:3 pbc="F F F"
C       -1.04055600       1.72937300       0.29954000
C       -1.19864800       0.34674300      -0.26796300
C       -1.97451600       0.10092700      -1.33267900
C       -0.44482000      -0.76445900       0.44137600
C        1.06217400      -0.58137300       0.40365300
C        1.78108200      -0.43669100       1.52536100
C        1.70183000      -0.58979900      -0.95633500
H       -1.60080000       2.46244100      -0.27530800
H        0.00895400       2.02428600       0.30944700
H       -1.38891600       1.76445700       1.33266800
H       -2.51878600       0.89706300      -1.82554300
H       -2.08197600      -0.90041200      -1.73101900
H       -0.70167200      -1.72438600      -0.02167300
H       -0.77455200      -0.81284600       1.48578700
H        1.30890900      -0.43561000       2.50005500
H        2.85712400      -0.31903900       1.48986200
H        1.52002900      -1.53891600      -1.46231000
H        2.77600900      -0.43615700      -0.89245100
H        1.27639900       0.19079100      -1.58722900
