21
Properties=species:S:1:pos:R:3 pbc="F F F"
C       -1.54995900       0.35842300       2.26870600
C       -2.10493100      -0.53508300       1.16706400
C       -1.66325000      -0.10238100      -0.24163100
C       -0.18267700      -0.25513900      -0.47417500
C        0.61204300       0.73389200      -0.90021200
C        2.09192900       0.63739400      -1.16858900
C        2.70838700      -0.74029100      -0.97500900
H       -1.88840700       0.02341900       3.24731800
H       -1.87445400       1.38854900       2.13577800
H       -0.46250200       0.35005800       2.26551700
H       -3.19961400      -0.53197500       1.21267100
H       -1.79109000      -1.56967200       1.34280200
H       -1.96509800       0.93447300      -0.42221000
H       -2.20457300      -0.71748900      -0.97441300
H        0.23297300      -1.24469600      -0.28654200
H        0.17703400       1.71895100      -1.07681000
H        2.61242000       1.36150200      -0.52623300
H        2.28378500       0.98016000      -2.19476600
H        2.58151000      -1.09011400       0.04734800
H        3.77519300      -0.71187800      -1.18814800
H        2.25356800      -1.47217900      -1.63923700
