19
Properties=species:S:1:pos:R:3 pbc="F F F"
C       -0.95046300       0.46815200      -2.32816000
C       -1.30513600      -0.08256800      -0.95201800
C       -0.76131100       0.76109700       0.20937700
C        0.76374600       0.68633600       0.37051200
N        1.24560900      -0.67623100       0.65169400
C        0.96109200      -1.15275800       2.00237200
H       -1.38996200      -0.14412600      -3.11322600
H        0.12634600       0.48403300      -2.48301700
H       -1.31899300       1.48518600      -2.45076000
H       -0.92680100      -1.10502600      -0.85981000
H       -2.39571100      -0.14519200      -0.86397700
H       -1.23870500       0.43279800       1.13891700
H       -1.04964700       1.80891000       0.07042000
H        1.07416100       1.39735700       1.16650600
H        1.25087700       1.02499000      -0.55425400
H        2.25327700      -0.71728300       0.48461600
H       -0.11670200      -1.25267600       2.15617000
H        1.34882900      -0.48108900       2.79066800
H        1.41619800      -2.13581000       2.14338400
