17
Properties=species:S:1:pos:R:3 pbc="F F F"
C       -0.04423900      -0.71448300       1.92180200
C       -0.77487100       0.42389900       1.22161700
C       -0.28232700       0.68751600      -0.23597200
C       -0.52716600      -0.51589900      -1.12146300
C        0.34234300      -1.03060000      -1.99053900
N        1.11789900       1.13558400      -0.29081600
H       -0.43499700      -0.86463000       2.92615700
H        1.02029700      -0.50493200       2.00771700
H       -0.15714700      -1.64667600       1.37242000
H       -0.65980700       1.34491000       1.80362700
H       -1.84776500       0.20550600       1.19709200
H       -0.90744400       1.51599000      -0.63061900
H       -1.51767200      -0.96416900      -1.03027400
H        1.33104000      -0.60720600      -2.11841800
H        0.08013300      -1.88366500      -2.60505500
H        1.73777100       0.40004900       0.04032100
H        1.24785500       1.95313400       0.30007700
