12
Properties=species:S:1:pos:R:3 pbc="F F F"
C       -2.96950600      -0.00414000      -0.04887900
C       -1.51636000      -0.00564000      -0.07110500
C       -0.30238400      -0.00889800      -0.11009600
C        1.16929900      -0.01772200      -0.14118300
O        1.78690600      -0.14948700      -1.18203800
C        1.87779000       0.14587900       1.20292200
H       -3.34540000       0.45058300       0.86896900
H       -3.35161100      -1.02458800      -0.10561900
H       -3.36577100       0.55471200      -0.89785800
H        1.17818800       0.24603000       2.02799700
H        2.51800700       1.02624800       1.18088300
H        2.51830100      -0.71396500       1.39197100
