21
Properties=species:S:1:pos:R:3 pbc="F F F"
C       -2.89237900       1.66822800       0.70757400
C       -1.87178000       1.49755200      -0.13309100
C       -1.11212300       0.21005400      -0.29961100
C        0.40294700       0.40130600      -0.12396600
C        1.22681100      -0.87769300      -0.39895300
C        2.72273400      -0.54229600      -0.47637600
C        0.97113500      -1.96675000       0.65116200
H       -3.41020600       2.61680600       0.77924100
H       -3.23816800       0.86420500       1.34683200
H       -1.54835000       2.33093600      -0.75832100
H       -1.30416100      -0.18854900      -1.30578200
H       -1.48822200      -0.53550100       0.40722000
H        0.61127400       0.75925900       0.88923200
H        0.74044800       1.19193100      -0.80345000
H        0.92004100      -1.27562700      -1.38028200
H        3.07916800      -0.12530000       0.46335300
H        2.91805300       0.18641800      -1.26058300
H        3.30994400      -1.43286000      -0.69033500
H        1.24175200      -1.62054300       1.64664000
H        1.56089000      -2.85510700       0.43454400
H       -0.07653600      -2.25847100       0.67125500
