9
Properties=species:S:1:pos:R:3 pbc="F F F"
N       -1.35231300      -0.71731400      -0.53092100
C        0.10905600      -0.66790600      -0.49007100
C        0.59437000       0.41610900       0.37281800
C        1.03470100       1.30859800       1.05687400
H       -1.66947800      -1.42587500      -1.18734100
H       -1.73829400       0.18284600      -0.80335400
H        0.55643200      -0.53605200      -1.50113200
H        0.49234300      -1.62913900      -0.10993000
H        1.39643300       2.08861300       1.68047500
