13
Properties=species:S:1:pos:R:3 pbc="F F F"
C       -1.42240400      -0.63587800       0.12597700
C        0.00970700      -0.86121800      -0.24730300
C        0.47257300      -2.05350600      -0.68620700
N        0.90308400       0.22168400      -0.13188600
C        0.62327600       1.50749700       0.29474900
O       -0.47248500       1.91584400       0.64724800
H       -1.99421000      -1.54984500      -0.01212000
H       -1.86492200       0.14963400      -0.48465600
H       -1.51007200      -0.32135400       1.16488700
H       -0.19400600      -2.89670700      -0.78206900
H        1.51299000      -2.18879900      -0.95038100
H        1.86456500       0.02194700      -0.39684800
H        1.54504700       2.16520800       0.28310700
