19
Properties=species:S:1:pos:R:3 pbc="F F F"
C       -2.01655900      -2.02896100      -0.11352700
C       -1.31032000      -0.90026700      -0.03903400
C       -0.84155100      -0.28265600       1.24928100
C        0.68361800      -0.08710500       1.33432400
C        1.24342400       1.03079500       0.43916400
C        1.28368100       0.69619100      -1.02686800
C        0.93444200       1.53718800      -2.00173500
H       -2.34014000      -2.42758500      -1.06729600
H       -2.29139300      -2.58566500       0.77528700
H       -1.05121800      -0.36895000      -0.95418800
H       -1.16489500      -0.90523400       2.09001600
H       -1.32969700       0.69289500       1.37723900
H        1.18894000      -1.03006000       1.10232600
H        0.93584100       0.14952700       2.37428800
H        2.27307600       1.23600700       0.76628800
H        0.68317900       1.95783100       0.59820500
H        1.66499200      -0.29301500      -1.28319800
H        0.55516800       2.52913500      -1.78474000
H        1.01573300       1.25401000      -3.04385500
