15
Properties=species:S:1:pos:R:3 pbc="F F F"
C       -0.67900200       0.97839700       2.17684900
C        0.78561200       0.72026500       2.03578800
C        1.41070300       0.09407000       1.01567900
C        0.83677600      -0.45076500      -0.20893100
C       -0.29394300      -0.03300600      -0.82843400
C       -0.77492800      -0.61084600      -2.04275100
C       -1.22518500      -1.06830900      -3.07320400
H       -0.96219800       0.98966100       3.22829100
H       -1.27556800       0.22337700       1.66718300
H       -0.95509900       1.95141900       1.76197700
H        1.40335900       1.05361300       2.86957400
H        2.48408600      -0.06736700       1.12047400
H        1.41643900      -1.24298400      -0.68248300
H       -0.87704300       0.80036600      -0.43772800
H       -1.59417700      -1.48691600      -3.97725500
