21
Properties=species:S:1:pos:R:3 pbc="F F F"
C       -2.55511200      -0.00108700      -0.50746300
C       -1.06786100      -0.00943400      -0.84135400
C       -0.19570200       1.08926900      -0.19848200
C        0.80182600       0.00204300       0.29216300
C       -0.19979000      -1.09418200      -0.16958200
C        1.08674600       0.02134400       1.80052500
C        2.11467900      -0.01020500      -0.50540200
H       -3.03974800       0.88422300      -0.91587600
H       -2.71703000      -0.00403700       0.56876100
H       -3.05204500      -0.87622900      -0.92296800
H       -0.94331300      -0.02396900      -1.93372200
H       -0.69573700       1.61567100       0.61766500
H        0.21167900       1.83406700      -0.88731100
H       -0.70167000      -1.59642500       0.66059600
H        0.20467700      -1.85897700      -0.83791500
H        0.16122600       0.03001600       2.37259900
H        1.66069700       0.90438500       2.07677100
H        1.65852400      -0.85566500       2.09959800
H        1.92070600      -0.02471800      -1.57587500
H        2.71102600      -0.88760200      -0.26028200
H        2.71228400       0.87277200      -0.28447000
