15
Properties=species:S:1:pos:R:3 pbc="F F F"
N       -2.42170500       0.97956900       1.14076700
C       -0.95837900       0.96810600       1.12143900
C       -0.43904400       0.04109000       0.01927700
C        1.09482500       0.00532400      -0.03372600
C        1.60229800      -0.88551000      -1.07815400
C        2.02046100      -1.62145200      -1.94013300
H       -2.76816600       1.58183000       1.88262400
H       -2.78765700       0.04182100       1.28476500
H       -0.53096600       0.65458600       2.09874600
H       -0.59975700       1.99355300       0.94807800
H       -0.83226700       0.36571200      -0.94819200
H       -0.82179200      -0.97155900       0.18374500
H        1.49546800      -0.31805600       0.93694400
H        1.48733200       1.01687500      -0.20547900
H        2.38877300      -2.26709200      -2.69880600
