15
Properties=species:S:1:pos:R:3 pbc="F F F"
C       -1.53340500       2.61726000       0.05038000
C       -2.02964500       1.40730600      -0.24688000
C       -1.25567100       0.18475700      -0.47464900
C        0.07769700       0.06252600      -0.33745800
C        0.82608600      -1.21574300      -0.61577800
C        1.75555200      -1.58031200       0.45723700
C        2.52610800      -1.88796100       1.33504600
H       -2.18988000       3.46443200       0.20334200
H       -0.46821400       2.79139400       0.14839300
H       -3.10992700       1.29648100      -0.33887100
H       -1.83197300      -0.69141200      -0.77361800
H        0.67525200       0.91812300      -0.02561900
H        1.40429700      -1.10558400      -1.54829700
H        0.12312700      -2.04153600      -0.78538000
H        3.19697500      -2.15890200       2.11265700
