17
Properties=species:S:1:pos:R:3 pbc="F F F"
N       -2.60409000       0.84842200       0.55003900
C       -1.14129600       0.93133900       0.56599800
C       -0.52508900      -0.07438200      -0.41350600
C        0.99097800       0.03775200      -0.48800000
C        1.85943600      -0.69488000       0.48925300
C        1.81621800      -1.12688600      -0.94344800
H       -3.00829300       1.50872800       1.20869800
H       -2.91432700      -0.08753800       0.79795000
H       -0.72765000       0.75844300       1.58219100
H       -0.84573300       1.95283900       0.28524300
H       -0.95606300       0.08583800      -1.40853100
H       -0.80553500      -1.09120400      -0.11764700
H        1.35198500       1.02203900      -0.79342900
H        1.37829900      -1.33433600       1.22232900
H        2.76074300      -0.20515000       0.84417100
H        1.30582900      -2.05647000      -1.17371200
H        2.68788700      -0.92980000      -1.55931300
