13
Properties=species:S:1:pos:R:3 pbc="F F F"
C        1.20015800       0.59057900       0.04086200
C        1.69703100      -0.83233500       0.31267900
N        0.30547300      -1.31122500       0.47265400
C       -0.21809700       0.07989600       0.40214400
C       -1.29651200       0.29649900      -0.66137000
O       -2.00804700       1.26999700      -0.69852400
H        1.30903400       0.92102000      -0.99501300
H        1.59221400       1.37133500       0.69662100
H        2.30455000      -0.93147400       1.22557500
H        2.23931900      -1.32379100      -0.50997600
H        0.12848800      -1.77404300       1.36742800
H       -0.56816500       0.46442200       1.37733600
H       -1.37485300      -0.51670300      -1.44824800
