17
Properties=species:S:1:pos:R:3 pbc="F F F"
C       -1.40027100      -0.67608700       1.63275100
C        0.03773400      -0.36791600       1.23605300
C        0.16384000       0.73009900       0.15432000
C       -0.45319000       0.34352900      -1.21978400
N        0.11214400      -0.86785400      -1.82909200
O        1.54740300       1.07185900      -0.01392200
H       -1.42931300      -1.41711600       2.42870100
H       -1.97067100      -1.06809000       0.79286100
H       -1.90701200       0.21796300       1.99128100
H        0.52796000      -1.28494600       0.88760200
H        0.59547400      -0.04304200       2.11929700
H       -0.33630700       1.64865000       0.51436400
H       -1.53772600       0.20577000      -1.11018900
H       -0.30784700       1.17787800      -1.91741900
H       -0.01310700      -1.67432900      -1.22249000
H        1.10403500      -0.74933900      -2.01793700
H        2.02160400       0.30895600      -0.37108700
