18
Properties=species:S:1:pos:R:3 pbc="F F F"
C       -2.47844200       0.26252900      -0.44563900
C       -1.54086400      -0.56010100      -1.29000200
C       -1.04468200       0.65698200      -0.55219400
N       -0.18744400       0.53463000       0.62459500
C        1.23787300       0.42625900       0.32140500
C        2.14493800      -0.18471600       1.33447800
C        1.87830200      -0.90894300       0.04088100
H       -2.82275000      -0.17591600       0.48565300
H       -3.22209300       0.86412600      -0.95848000
H       -1.65728500      -0.50666800      -2.36762400
H       -1.26496400      -1.53914300      -0.91340300
H       -0.81363000       1.54045800      -1.15549800
H       -0.48759900      -0.25258500       1.20294200
H        1.61939200       1.28541200      -0.23873000
H        1.70252400      -0.59805500       2.23515200
H        3.13094300       0.24573100       1.47712700
H        1.25821200      -1.79763200       0.08855600
H        2.68661200      -0.96019800      -0.68143800
