10
Properties=species:S:1:pos:R:3 pbc="F F F"
O       -1.24763900       1.16022500      -0.71316800
C       -0.05571900       0.61449700      -1.22841700
C        0.60156900      -0.30628400      -0.19274300
O        1.64804200      -0.88201400      -0.43968600
C       -0.07278900      -0.46973800       1.10182800
C       -0.61498500      -0.61712300       2.17483000
H       -1.66398500       1.73869100      -1.36490800
H        0.65865600       1.41634500      -1.50740300
H       -0.25332800       0.03627700      -2.15454000
H       -1.09302700      -0.74511000       3.11668600
