14
Properties=species:S:1:pos:R:3 pbc="F F F"
N        1.66977200       0.97658600       1.36674300
N        1.24765300      -0.35522400       1.29349300
C        0.33568100      -0.69020400       0.43401900
C       -0.40102100       0.19657900      -0.52407200
C       -0.89353200      -0.38349600      -1.82268100
C       -1.87270800      -0.03358600      -0.75513600
H        2.03534800       1.18370900       2.29691100
H        0.95074400       1.65118800       1.09939100
H        0.06748500      -1.75463600       0.40201900
H       -0.07436800       1.23501600      -0.57310600
H       -0.70483800      -1.43583400      -2.01112000
H       -0.85426100       0.24650700      -2.70568300
H       -2.34824100      -0.84754700      -0.21695800
H       -2.50436600       0.83630500      -0.90589100
