17
Properties=species:S:1:pos:R:3 pbc="F F F"
C       -2.11956000      -1.17729000       0.00036100
N       -0.67298200      -1.05682700      -0.17223200
C       -0.05578300      -0.07574300       0.71381000
C       -0.06640500       1.40020300       0.38763000
C        1.22008900       0.60705400       0.33244300
C        1.91209100       0.36393800      -0.99274300
H       -2.50694300      -1.93991200      -0.67955300
H       -2.66355700      -0.23671900      -0.19788000
H       -2.35146900      -1.48309500       1.02426300
H       -0.45263100      -0.84146400      -1.14620000
H       -0.17031900      -0.33699200       1.77145300
H       -0.18970100       2.11615200       1.19463300
H       -0.49893700       1.70594000      -0.55908900
H        1.91304000       0.79300400       1.15572600
H        1.19919800       0.30269800      -1.81249400
H        2.48379100      -0.56382000      -0.97452000
H        2.60581600       1.17302200      -1.21971800
