16
Properties=species:S:1:pos:R:3 pbc="F F F"
C       -0.73946400      -1.89704500       0.04543200
C       -1.15475400      -0.46987800       0.37739800
C       -0.55929000       0.56700900      -0.58597600
N        0.91233300       0.59029800      -0.56865800
C        1.49459700       1.17959600       0.63380200
H       -1.15557100      -2.60156500       0.76315800
H        0.34325700      -1.99541200       0.06195700
H       -1.08427700      -2.18479600      -0.94616600
H       -0.85652900      -0.23319100       1.40396200
H       -2.24693700      -0.38769200       0.34927300
H       -0.98303500       1.56635500      -0.34606000
H       -0.87397600       0.33261900      -1.61285500
H        1.24886200       1.09697100      -1.39027300
H        1.26309400       0.57040500       1.51141100
H        1.13124400       2.20432600       0.83478600
H        2.58101100       1.22179900       0.52747600
