15
Properties=species:S:1:pos:R:3 pbc="F F F"
N       -1.45060100      -0.43487500       1.31218000
C       -0.00109800      -0.25075600       1.24475000
C        0.52320500      -0.41259100      -0.20756700
C        0.12665400       0.73485500      -1.12168300
C       -1.12469000       1.04055700      -1.46615500
O        1.94922100      -0.54571800      -0.17898900
H       -1.78972700      -0.27402100       2.25708800
H       -1.70916900      -1.37792300       1.03159900
H        0.54093000      -0.97164300       1.89017000
H        0.24400500       0.75132500       1.62413200
H        0.13569100      -1.36646400      -0.61485600
H        0.94782600       1.33411400      -1.51762200
H       -1.97013500       0.47549800      -1.09246300
H       -1.33537000       1.87716300      -2.12205800
H        2.35195500       0.28942000       0.09459600
