16
Properties=species:S:1:pos:R:3 pbc="F F F"
C       -1.00095000      -1.65067300      -0.92650700
C       -1.41863700      -0.69697400       0.18499900
C       -0.78734400       0.69847700       0.04411200
C        0.73292300       0.67825400       0.14173900
N        1.53627700       1.00468700      -0.82567600
N        1.25200400       0.25393500       1.35483600
H       -1.46231100      -2.62633700      -0.78992600
H        0.07794200      -1.78368700      -0.93943200
H       -1.30201700      -1.26923700      -1.89984800
H       -1.14444800      -1.12311500       1.15625700
H       -2.50891500      -0.59354700       0.18988300
H       -1.18931000       1.35140400       0.82833700
H       -1.07901100       1.13827100      -0.91319400
H        1.03504000       1.26706100      -1.67643900
H        0.65660300       0.25493700       2.17070300
H        2.24251200       0.39938500       1.50347300
