16
Properties=species:S:1:pos:R:3 pbc="F F F"
C       -2.68489200      -1.02813200       0.87891000
O       -1.27276500      -0.98457200       0.84255300
C       -0.75930500       0.02583500      -0.02160000
C        0.75929900      -0.02555200       0.02192200
O        1.27276700       0.98534900      -0.84164900
C        2.68489500       1.02738500      -0.87977200
H       -2.98468300      -1.82803600       1.56274500
H       -3.10724200      -1.23256700      -0.12192000
H       -3.10814500      -0.07144600       1.23590800
H       -1.12900900       1.02342300       0.29605200
H       -1.12932500      -0.13308400      -1.05629400
H        1.12896400      -1.02294000      -0.29639100
H        1.12936200       0.13267800       1.05670900
H        2.98469600       1.82766200      -1.56316600
H        3.10657700       0.07058800      -1.23833200
H        3.10880900       1.23028700       0.12070700
