17
Properties=species:S:1:pos:R:3 pbc="F F F"
C       -0.46063700       2.01396600       1.04026600
C       -0.10637900       1.31806700      -0.27034300
C        0.81300900       0.11962500      -0.06959800
C        0.93586200      -0.92906600      -1.14904800
C        0.27557200      -1.27939900       0.14444600
N       -1.15024500      -1.56997000       0.15996600
H       -1.10485200       2.87250900       0.86204900
H        0.43415300       2.36667700       1.54934100
H       -0.98140000       1.33849100       1.71608200
H        0.37372500       2.04110100      -0.94159500
H       -1.02406900       0.99751500      -0.77505900
H        1.73943100       0.35546800       0.45778000
H        1.92163800      -1.33415500      -1.35771300
H        0.30194900      -0.82034000      -2.02356200
H        0.84593800      -1.91688300       0.82905900
H       -1.61870300      -1.13493700      -0.62975900
H       -1.58066500      -1.23481700       1.01928400
