14
Properties=species:S:1:pos:R:3 pbc="F F F"
N       -0.89742300       1.21903800      -0.66006600
C       -0.95727200      -0.14795000      -0.39523600
N       -1.82213600      -0.94429000      -0.94224100
C        0.02142700      -0.66093800       0.64643000
C        1.44753900      -0.29317400       0.33592000
C        2.20786100       0.49391000       1.09817200
H       -1.38542200       1.55941900      -1.47949900
H       -0.04929600       1.71133000      -0.40807400
H       -2.43869300      -0.46391000      -1.60374600
H       -0.07545200      -1.74881600       0.70308500
H       -0.25957400      -0.25887400       1.62667400
H        1.86257600      -0.71343900      -0.58001200
H        1.83250400       0.92550200       2.01891500
H        3.23293800       0.71446300       0.82708600
