13
Properties=species:S:1:pos:R:3 pbc="F F F"
C        0.66326100       0.62541000       0.42952500
C       -0.49238900       0.32519800      -0.51565800
C       -1.77020300      -0.23975900      -0.00006400
N       -1.69818800       1.15399600      -0.44094200
C        1.70100300      -0.49396300       0.49017200
O        1.66718600      -1.49564800      -0.17519700
H        1.18154800       1.54493700       0.12271000
H        0.29655300       0.82032000       1.44487600
H       -0.18868100       0.06289000      -1.53391300
H       -1.86968200      -0.41952300       1.07235400
H       -2.36557700      -0.89922800      -0.63208600
H       -1.66000100       1.78513900       0.36278400
H        2.54563900      -0.30864200       1.22759400
