11
Properties=species:S:1:pos:R:3 pbc="F F F"
N       -2.39538200      -0.14683100      -0.18349900
C       -0.99465300      -0.09998500      -0.05785900
C       -0.25472200       1.06317300      -0.00926300
S        1.46125900       0.70393500       0.07961200
C        1.15702700      -1.00872700       0.04992100
C       -0.18343200      -1.28463200      -0.02777900
H       -2.87946600       0.68941700       0.12184800
H       -2.82351900      -1.00069900       0.15454700
H       -0.62781000       2.07820300      -0.02505200
H        1.96287200      -1.73083000       0.08904800
H       -0.58987600      -2.29020400      -0.05980400
