12
Properties=species:S:1:pos:R:3 pbc="F F F"
C       -3.09538900      -0.33520000       0.42930600
C       -1.63944300      -0.35686600       0.39352600
C       -0.43013100      -0.38797200       0.37466900
C        1.03135200      -0.40743000       0.32699900
C        1.62849900       0.74605400      -0.49637900
O        2.70645500       0.68029000      -1.02589900
H       -3.50501100      -0.18674100      -0.57114300
H       -3.45464200       0.47420200       1.06695100
H       -3.48680900      -1.27562100       0.82089100
H        1.39147400      -1.36362300      -0.07022400
H        1.43473200      -0.32685800       1.34758900
H        0.99928300       1.68480100      -0.55560400
