16
Properties=species:S:1:pos:R:3 pbc="F F F"
C       -2.12599700       0.16161200      -0.14414200
C       -0.61821300       0.14381400      -0.14852200
C        0.05961100      -0.29386300      -1.22628300
C        1.54824700      -0.34121400      -1.37188700
C        0.05715100       0.65480400       1.11852900
O        1.02354400      -0.25589600       1.62853200
H       -2.53327900      -0.17509400      -1.09459800
H       -2.50410900       1.16679000       0.05093200
H       -2.52382300      -0.48153200       0.64350200
H       -0.51141900      -0.64247900      -2.08777800
H        2.05557700       0.04672600      -0.49418600
H        1.86432500       0.23810000      -2.24153000
H        1.88788400      -1.36529200      -1.53917900
H       -0.71370400       0.85616800       1.89234500
H        0.57497900       1.61135800       0.93265800
H        0.69042900      -1.15849400       1.54340600
