18
Properties=species:S:1:pos:R:3 pbc="F F F"
C       -2.87972900      -0.83953900      -0.15327800
C       -1.35683800      -0.85217200      -0.11106400
C       -0.74729800       0.47911400      -0.56965700
C        0.78663900       0.47730900      -0.60919700
C        1.44274800       0.39239500       0.77544300
O        2.85690400       0.47234500       0.67646000
H       -3.28476100      -1.78904100       0.19011800
H       -3.24231800      -0.66631600      -1.16456200
H       -3.28231000      -0.05344700       0.48242900
H       -0.98063300      -1.66224600      -0.74501700
H       -1.02532000      -1.08032700       0.90721900
H       -1.09507100       1.28400800       0.08722600
H       -1.12591200       0.71766100      -1.56939300
H        1.13078400       1.39111900      -1.10464600
H        1.13815500      -0.35654900      -1.22964200
H        1.15277900      -0.54997400       1.28689600
H        1.11061500       1.22388300       1.41465800
H        3.17562900      -0.18017600       0.03955500
