16
Properties=species:S:1:pos:R:3 pbc="F F F"
C       -1.12887500      -1.43727800       1.22953100
C       -1.46403500       0.01349000       0.89184500
O       -0.79138400       0.48031200      -0.28221000
C        0.60307400       0.66786500      -0.12724200
C        1.54784600      -0.37848800      -0.64431000
C        1.38743700       0.93843100      -1.36255000
H       -1.70582600      -1.77173200       2.08991900
H       -0.07352400      -1.55463800       1.46727900
H       -1.35884600      -2.09347700       0.39309800
H       -1.21797200       0.67295200       1.75089100
H       -2.54242600       0.11923800       0.69564400
H        0.87822600       1.20222200       0.79917200
H        1.12832100      -1.25432200      -1.12590300
H        2.47869200      -0.55191500      -0.11261600
H        0.86089900       0.92067300      -2.30993900
H        2.21084900       1.64438900      -1.31350900
