17
Properties=species:S:1:pos:R:3 pbc="F F F"
C       -2.88492400      -0.98958700      -0.26274200
C       -1.83246100       0.10002900      -0.07304900
C       -1.10234600      -0.01746200       1.23652600
C        0.23481300       0.03988300       1.38320000
C        1.17553500       0.20523200       0.31488700
C        2.04124600       0.34562500      -0.52599200
C        3.04002400       0.51144900      -1.57235900
H       -3.41535100      -0.85321800      -1.20291700
H       -3.61698800      -0.97143000       0.54252100
H       -2.42766700      -1.97634800      -0.27504900
H       -2.32876900       1.08037900      -0.11850600
H       -1.11615100       0.07756600      -0.89916400
H       -1.71707500      -0.14883600       2.12662900
H        0.66890400      -0.04169200       2.38186400
H        3.26828300      -0.44605900      -2.04546600
H        3.96921300       0.91500600      -1.16536800
H        2.68427600       1.19362200      -2.34736600
