12
Properties=species:S:1:pos:R:3 pbc="F F F"
C        0.88038900       0.82662800      -0.68027400
C        1.54006600      -0.55205900      -0.56588400
N        0.21385500      -1.20931800      -0.52319200
C       -0.47213700       0.10965900      -0.47044600
C       -1.14091400       0.38519800       0.80975500
N       -1.66004300       0.58579600       1.81772500
H        0.98076300       1.30190900      -1.65863500
H        1.15436900       1.55040000       0.08954500
H        2.13147400      -0.69479200       0.35077500
H        2.15641500      -0.86642100      -1.42194200
H        0.06361100      -1.78689300       0.30757100
H       -1.20774000       0.24389400      -1.28794500
