15
Properties=species:S:1:pos:R:3 pbc="F F F"
C       -2.94974900      -1.12568700       0.24986300
C       -1.50343600      -1.05139700       0.10660900
C       -0.30067200      -0.90036800      -0.00826300
C        1.11864000      -0.93320100      -0.15157600
C        1.97551700       0.11803900      -0.19160800
C        1.67874800       1.54268000      -0.09987300
C        0.47152900       2.11503400       0.03537500
H       -3.41150600      -1.50980700      -0.66237300
H       -3.37395500      -0.14090700       0.45570500
H       -3.22484100      -1.79200600       1.07006600
H        1.53979800      -1.93847700      -0.23511700
H        3.03200700      -0.12288200      -0.30550100
H        2.55351200       2.19198700      -0.14923000
H       -0.43632000       1.52866200       0.08965500
H        0.37784500       3.19282800       0.09363000
