12
Properties=species:S:1:pos:R:3 pbc="F F F"
C       -1.13143000       0.93375700       0.85036100
O       -1.67543900      -0.03557100      -0.03223700
C       -0.84975100      -0.81991200      -0.74676900
C        0.50965000      -0.84856800      -0.77301400
C        1.43388600      -0.04385900      -0.03997600
C        2.33500200       0.55941200       0.50965300
H       -1.97141700       1.45264800       1.32285300
H       -0.52036800       1.66117300       0.30071700
H       -0.52033000       0.45452300       1.62594400
H       -1.41133200      -1.51500800      -1.37984900
H        0.97041700      -1.57802100      -1.43755900
H        3.07240600       1.12427000       1.02425500
