15
Properties=species:S:1:pos:R:3 pbc="F F F"
C       -1.59215600      -0.31885700       0.60698000
C       -0.19233900      -0.78516200       0.32586200
C        0.23814400      -2.00267100       0.69435800
C        0.72488300       0.16274600      -0.38279000
C        0.78989600       1.61892500      -0.03215800
N        0.13317800       1.18722500      -1.25733300
H       -2.19406700      -1.11251400       1.04244300
H       -2.06969300       0.02406800      -0.31025800
H       -1.58876500       0.52574700       1.29796700
H       -0.41206900      -2.69599000       1.21210200
H        1.24923700      -2.32795100       0.48032600
H        1.66278800      -0.28440400      -0.73595300
H        1.74891800       2.13388000      -0.12680100
H        0.13030700       2.02162600       0.73792300
H        0.73053100       1.35507800      -2.06992700
