15
Properties=species:S:1:pos:R:3 pbc="F F F"
N       -2.67312600      -0.21971100      -1.20786400
C       -1.23859900      -0.50294000      -1.13114200
C       -0.61491100       0.21031600       0.06502400
O        0.78570900      -0.06800300       0.08815700
C        1.46829800       0.35184000       1.17991800
C        2.79794600       0.19800100       1.29850400
H       -3.09736400      -0.72100800      -1.98398300
H       -2.84111900       0.77530100      -1.33708000
H       -0.70256700      -0.20517200      -2.05509700
H       -1.09847000      -1.58702200      -1.02715200
H       -1.08236900      -0.12230800       1.01118200
H       -0.77705700       1.30558200      -0.00452100
H        0.86437400       0.82247300       1.97101300
H        3.37781900      -0.26589400       0.51329600
H        3.30655900       0.53674300       2.18830800
