14
Properties=species:S:1:pos:R:3 pbc="F F F"
N       -0.83784900       1.71320500       0.32054600
C       -1.84211200       0.69842400       0.00934500
C       -0.47486300       0.29934100       0.45854300
C        0.54384500      -0.25271800      -0.51392100
N        1.85748900      -0.66367100      -0.00559000
C        0.92518500      -1.69421400      -0.46112200
H       -1.01901800       2.13507900       1.23355100
H       -2.11121200       0.61821200      -1.04495300
H       -2.67871100       0.59021400       0.70300400
H       -0.38479800      -0.07865700       1.48631600
H        0.57536700       0.25297700      -1.48453100
H        1.87975600      -0.62234500       1.01639600
H        0.47205300      -2.33103200       0.30220900
H        1.21675400      -2.21617900      -1.37375800
