19
Properties=species:S:1:pos:R:3 pbc="F F F"
C       -0.87329200      -0.42216000      -2.58822900
C       -1.25965800      -0.89097900      -1.19022100
C       -0.75834000       0.02691100      -0.06672600
C        0.77480000      -0.00136700       0.10969700
N        1.27241900       0.87277000       1.18654100
C        0.95449400       0.42906400       2.54005000
H       -1.28385700      -1.08856200      -3.34397600
H        0.20673100      -0.39946900      -2.71636100
H       -1.25227200       0.57919700      -2.78261000
H       -0.87904000      -1.90559000      -1.02852400
H       -2.35139600      -0.96088900      -1.12908900
H       -1.23427100      -0.27463600       0.87228800
H       -1.08368300       1.05525400      -0.26014100
H        1.25752600       0.30691900      -0.83022300
H        1.10537800      -1.02919700       0.31273700
H        0.93758200       1.82813700       1.04315400
H        1.36328100      -0.57006700       2.71288400
H       -0.12894600       0.38782600       2.75416200
H        1.40800700       1.11287400       3.26249400
