19
Properties=species:S:1:pos:R:3 pbc="F F F"
C       -2.41683600      -1.13220100       0.04317900
C       -1.46485000      -0.71950500      -0.79534300
C       -0.87640300       0.66588200      -0.80354500
C        0.63093100       0.71039100      -1.09919000
C        1.56788000       0.32288500       0.04226400
C        1.34444100       0.76501200       1.45659000
C        1.21683300      -0.68201500       1.09515300
H       -2.82726500      -2.13233500      -0.02165000
H       -2.80754100      -0.48475600       0.81959100
H       -1.09879900      -1.40154100      -1.56406200
H       -1.10387000       1.17959400       0.13534900
H       -1.38355000       1.24091400      -1.59205500
H        0.88952500       1.72729800      -1.42199500
H        0.84119400       0.06490300      -1.96164900
H        2.61403900       0.31402900      -0.27246800
H        0.43499700       1.30817300       1.69196300
H        2.20947100       1.07086700       2.03675800
H        0.22194500      -1.11209200       1.08558700
H        1.99787900      -1.35775400       1.42997900
