16
Properties=species:S:1:pos:R:3 pbc="F F F"
C       -2.08065100       0.02618600      -0.64778700
C       -0.55340500       0.04251700      -0.63383800
C        0.08194100      -1.19972100       0.00886600
O        1.34103100      -0.78288000       0.53864200
C        1.42915600       0.64481800       0.59377600
C        0.06404400       1.19160800       0.18122900
H       -2.45515900      -0.81581900      -1.22774500
H       -2.47763500       0.93800800      -1.09016000
H       -2.48234800      -0.05860100       0.36064800
H       -0.19688900       0.12366000      -1.67292200
H        0.24570500      -2.02251500      -0.70948600
H       -0.55391900      -1.60387000       0.82534300
H        2.23237200       0.98673600      -0.09118600
H        1.72561000       0.95575100       1.61288400
H        0.13879900       2.12024200      -0.39116100
H       -0.55129800       1.40700200       1.06117100
