16
Properties=species:S:1:pos:R:3 pbc="F F F"
C       -1.74363800       0.47037500       0.71074800
C       -0.22529200       0.38935100       0.56544100
O        0.12583000      -1.01491700       0.44370900
C        1.48040600      -1.31328900       0.73646300
C        0.28749100       1.13588400      -0.68602300
O       -0.04442500       0.38640300      -1.83930300
H       -2.08439600      -0.13224300       1.54985800
H       -2.23361200       0.10581100      -0.18930600
H       -2.06092800       1.49833900       0.87643900
H        0.26257100       0.79833200       1.47956200
H        1.60327700      -2.39892300       0.68227900
H        1.75521700      -0.97052200       1.74922500
H        2.17196300      -0.84201600       0.01616900
H        1.38826900       1.28396000      -0.62570900
H       -0.16561400       2.13787500      -0.76537100
H       -0.08179300      -0.54642900      -1.56816800
