14
Properties=species:S:1:pos:R:3 pbc="F F F"
C       -1.90113700      -0.73422600      -1.13984800
O       -0.50648600      -0.74250500      -0.89466300
C       -0.01190800       0.07401300       0.07770600
C       -0.77785400       0.90228200       0.83345400
C        1.45188100      -0.06231500       0.19751500
C        2.23569200       0.60109600       1.05612100
H       -2.10000000      -1.44644900      -1.94615000
H       -2.24416400       0.26490500      -1.44874600
H       -2.46299100      -1.03850800      -0.24381000
H       -1.84872400       0.96970700       0.71632800
H       -0.31638600       1.52356600       1.58700200
H        1.90505600      -0.77575500      -0.48987900
H        1.83313200       1.32109500       1.75943100
H        3.30593100       0.43637600       1.07344500
