17
Properties=species:S:1:pos:R:3 pbc="F F F"
C       -1.07410700      -1.75784700       1.13284400
O       -1.24526700      -0.37047100       0.92995000
C       -0.81807000       0.10693400      -0.35004100
C        0.72689100       0.24159100      -0.45639100
N        1.13092700       0.68040300      -1.81032300
C        1.27730600       1.20993300       0.59324700
H       -1.52727300      -2.01730200       2.09499800
H       -0.00726100      -2.04710900       1.15845300
H       -1.56522100      -2.34547900       0.33556500
H       -1.29458300       1.09009800      -0.49500400
H       -1.19600100      -0.56660200      -1.14749800
H        1.17777300      -0.75346700      -0.28728900
H        0.78897000       1.61999800      -1.99803100
H        0.75594300       0.05350500      -2.51826600
H        0.88521400       2.21420800       0.43847500
H        2.36262300       1.26156100       0.54129600
H        0.99334500       0.88787000       1.59200100
