21
Properties=species:S:1:pos:R:3 pbc="F F F"
C       -1.39328400      -0.07007100      -2.19352500
C       -1.01352000      -0.17221300      -0.71615700
C       -0.19633600      -1.43597600      -0.37491500
C        0.58972500      -1.05921400       0.87905900
C        0.97561800       0.41977500       0.66672300
C       -0.15796700       1.01784400      -0.20780000
C        1.21456900       1.18214700       1.97024900
H       -1.99198500      -0.92567400      -2.50134300
H       -0.50790600      -0.03786300      -2.82600300
H       -1.97445900       0.83001300      -2.38606900
H       -1.94438600      -0.20127400      -0.12798700
H        0.49169000      -1.67314800      -1.19311300
H       -0.83310900      -2.31271600      -0.22700600
H        1.46470900      -1.69634500       1.03621700
H       -0.04479700      -1.16012100       1.76582000
H        1.90945200       0.44635600       0.08306700
H        0.26118500       1.58915700      -1.04102300
H       -0.77416900       1.71676200       0.36498000
H        0.32105700       1.18941200       2.59199200
H        1.49208900       2.21594000       1.77247600
H        2.01779100       0.72574100       2.54618700
