16
Properties=species:S:1:pos:R:3 pbc="F F F"
C        1.53548400      -1.90797600      -0.58604600
C        0.22532700      -1.12793700      -0.58053700
C        0.09514600      -0.22831600       0.64381100
O        0.62379000       1.09900300       0.54355800
C       -0.79346000       0.96042000       0.70290900
C       -1.66840400       1.42024800      -0.44452300
H        1.60263400      -2.54681500      -1.46433500
H        1.61782000      -2.54015700       0.29647100
H        2.38663000      -1.23163500      -0.59322400
H       -0.61776600      -1.83088100      -0.60571500
H        0.15522700      -0.52443900      -1.48941400
H        0.34079400      -0.72028500       1.60172100
H       -1.14968400       1.27351300       1.70029600
H       -1.21741500       1.19012300      -1.40625000
H       -1.82525400       2.49718100      -0.39848600
H       -2.64786400       0.94274000      -0.40322100
