12
Properties=species:S:1:pos:R:3 pbc="F F F"
C       -0.87971300       0.36167000      -0.03298200
C       -1.35206900      -0.59455000       0.96911600
N       -1.72746600      -1.33587300       1.76509300
C        0.64348800       0.48842800      -0.04458700
C        1.35330600       1.04122200      -1.23380800
N        1.37796600      -0.39168900      -0.95063600
H       -1.34104400       1.33622200       0.17860700
H       -1.23577300       0.04600000      -1.01916200
H        1.09763400       0.66836100       0.93697600
H        2.27666000       1.60236500      -1.07829800
H        0.78480900       1.33223600      -2.11840000
H        2.27413800      -0.67287000      -0.54735600
