12
Properties=species:S:1:pos:R:3 pbc="F F F"
O       -0.28463900      -1.53035900      -1.02865100
C       -0.97787700      -0.84897400      -0.00928500
C       -0.39994200       0.53693300       0.25623900
C       -1.17211700       1.60880700       0.50468800
C        1.08695100       0.68455300       0.27666700
O        1.86004100      -0.22808000       0.06939500
H        0.67231500      -1.46368500      -0.85896800
H       -0.93863800      -1.43225700       0.94039800
H       -2.03810000      -0.77643900      -0.29632000
H       -2.25511100       1.54691400       0.49640900
H       -0.73141200       2.57851300       0.71935700
H        1.46563200       1.72654800       0.50331800
