17
Properties=species:S:1:pos:R:3 pbc="F F F"
C       -0.19884900      -2.35162900       0.77857400
C       -0.68885100      -0.95496700       1.15161400
C       -0.24147400       0.11435200       0.16984200
C       -1.13080100       0.86678100      -0.51545100
C       -0.77851600       1.94832200      -1.48426000
C        1.18115700       0.29047500       0.01976300
C        2.38610500       0.39817800      -0.06641000
H       -0.52816400      -3.08219500       1.51490600
H        0.88731000      -2.38173200       0.73286600
H       -0.58388800      -2.65467000      -0.19281400
H       -0.31584400      -0.70277100       2.15233400
H       -1.78203900      -0.94946300       1.21484900
H       -2.19344800       0.68270600      -0.35857700
H        0.29786700       2.06442300      -1.57847700
H       -1.20165000       2.90407800      -1.16836400
H       -1.19008700       1.73475100      -2.47281600
H        3.43731300       0.51579600      -0.16594100
