17
Properties=species:S:1:pos:R:3 pbc="F F F"
C       -2.21624800       0.13341400      -0.08350900
C       -0.73471000      -0.01576900       0.11595200
C       -0.08021100       0.74899200       1.02003400
C        1.32463000       0.68096700       1.28321800
C        2.50590600       0.68076100       1.56188300
C       -0.02771400      -1.06138500      -0.72046600
C       -0.02507900      -0.74176900      -2.21533700
H       -2.63618200       0.88404100       0.58242300
H       -2.73077200      -0.81193100       0.09775000
H       -2.44573900       0.42311400      -1.11037500
H       -0.63332600       1.48255300       1.60860900
H        3.54571200       0.65928700       1.77734100
H       -0.51740000      -2.03198200      -0.56722700
H        1.00281800      -1.16761300      -0.37193400
H       -1.03770200      -0.67884900      -2.60891400
H        0.50268900      -1.51629300      -2.76792200
H        0.47046300       0.20640300      -2.41040100
