14
Properties=species:S:1:pos:R:3 pbc="F F F"
C        1.86072300       1.44916000       0.72070100
O        1.35693500       0.15878500       0.42173200
C       -0.05738100       0.10579800       0.34184700
C       -0.71702500       0.48838100      -0.97304700
C       -0.65086400      -0.95249000      -0.52122300
O       -1.84019900      -1.59916700      -0.12067700
H        2.95028100       1.37980000       0.78884100
H        1.46428700       1.82244200       1.68185000
H        1.59583100       2.17827600      -0.06528200
H       -0.57477900       0.40166500       1.27121800
H       -0.07334200       0.79722900      -1.78986500
H       -1.67682000       0.99565300      -0.93081500
H        0.01147500      -1.63433200      -1.05801600
H       -2.44353800      -0.96277500       0.28395900
