21
Properties=species:S:1:pos:R:3 pbc="F F F"
C       -1.97616300       1.93758300       0.40770800
C       -0.51839800       1.57342800       0.66128300
C       -0.01283300       0.42908400      -0.23409600
C        1.48452200       0.12105100      -0.04661500
C        1.65564100      -1.29932300      -0.58913000
C        0.32940600      -2.02082200      -0.28919400
C       -0.71449100      -0.92673600       0.01042300
H       -2.29071400       2.75207100       1.05721600
H       -2.63176000       1.08975000       0.59508700
H       -2.12765700       2.25328600      -0.62275400
H       -0.38997300       1.29801500       1.71393400
H        0.10715300       2.45825500       0.49781900
H       -0.17400700       0.71690100      -1.28551600
H        1.74426300       0.15404800       1.01702900
H        2.12669000       0.84493200      -0.55677000
H        2.51373300      -1.81271500      -0.14645100
H        1.83108800      -1.26717900      -1.66936400
H        0.43840800      -2.68932100       0.56975600
H        0.02455600      -2.65040900      -1.12996400
H       -1.05086000      -0.99821900       1.04960700
H       -1.60702100      -1.03500900      -0.61190000
