19
Properties=species:S:1:pos:R:3 pbc="F F F"
C       -2.69254100       0.16638400      -1.21924400
C       -1.17840700       0.04506400      -1.32901400
C       -0.44181000       0.90056300      -0.27999600
C        1.05283600       0.83903700      -0.42637400
C        1.92558700       0.18199500       0.36102700
C        1.64223100      -0.66147900       1.52711300
C        0.58072400      -1.45994600       1.70591200
H       -3.18564000      -0.45387400      -1.96502500
H       -3.01561400       1.19444100      -1.37163800
H       -3.04145700      -0.14897900      -0.23790600
H       -0.85836400       0.34626300      -2.33192500
H       -0.88462500      -1.00313800      -1.21345100
H       -0.74368500       0.58892900       0.72407700
H       -0.76136200       1.94423900      -0.39637800
H        1.46430500       1.42510700      -1.24982700
H        2.98771800       0.31270700       0.14687200
H        2.41826100      -0.65514900       2.29524400
H       -0.19567300      -1.56330100       0.95846500
H        0.48442000      -2.05694500       2.60493700
