19
Properties=species:S:1:pos:R:3 pbc="F F F"
C       -2.49168200      -0.09514500       0.41773200
C       -0.99548300      -0.16253100       0.75058300
C       -0.31230900      -1.38314300       0.17263800
C        0.73522500      -1.07072200      -0.59345100
C        0.94984500       0.42326700      -0.70490100
C       -0.17700000       1.02845600       0.17832700
C        2.35981900       0.86222300      -0.28863900
H       -3.01603600      -0.96197800       0.81613100
H       -2.65507500      -0.06947400      -0.65745900
H       -2.94415400       0.79723500       0.84671100
H       -0.90459400      -0.18312100       1.85165200
H       -0.65431700      -2.39374400       0.37858000
H        1.37648400      -1.78987200      -1.09579000
H        0.80615800       0.73319400      -1.75580700
H       -0.81418000       1.69519100      -0.40912200
H        0.24137900       1.63492300       0.98618000
H        2.56892900       0.58968000       0.74352900
H        2.47190700       1.94116000      -0.37964400
H        3.11301300       0.39236900      -0.91870200
