17
Properties=species:S:1:pos:R:3 pbc="F F F"
C        1.93853300      -0.03731800       0.15093800
C        1.18122100      -1.14689000       0.25876400
C       -0.21117000      -0.75471800      -0.20758600
C       -0.25676400       0.70009600       0.17771400
C        1.13039100       1.21361700      -0.23997300
C       -1.75757000       0.69059800      -0.20649900
C       -1.72034700      -0.82705000       0.13902000
H        3.01468900      -0.00582500       0.30348900
H        1.55098900      -2.14310900       0.48719800
H       -0.18291600      -0.81438200      -1.31285100
H       -0.25600500       0.73227000       1.27903600
H        1.46222900       2.11536600       0.28632100
H        1.21915000       1.40564600      -1.31771500
H       -1.94924400       0.85878300      -1.26899800
H       -2.42184000       1.32869700       0.38408200
H       -2.33279300      -1.49856000      -0.47032200
H       -1.93002900      -1.00890200       1.19549800
