15
Properties=species:S:1:pos:R:3 pbc="F F F"
C       -1.65246800       1.95993800      -0.41268900
C       -1.02255100       0.64900300      -0.87416400
N       -0.48069500      -0.11685900       0.24547300
C        0.77388100      -0.69045600       0.19620300
O        1.50544300      -0.57019400      -0.79125600
C        1.20523400      -1.45471100       1.44631600
H       -2.05706900       2.50786500      -1.26002800
H       -0.92033300       2.59457300       0.08145300
H       -2.46570100       1.77830200       0.28855200
H       -0.19260400       0.83274200      -1.56534100
H       -1.77606800       0.05130500      -1.42107900
H       -1.06766200      -0.24851300       1.06314100
H        0.35725300      -1.88568700       1.97531000
H        1.72168700      -0.78484400       2.13348400
H        1.89725100      -2.24882400       1.18224800
