16
Properties=species:S:1:pos:R:3 pbc="F F F"
N        0.05590900       2.33638900       0.49575000
C       -0.49339000       1.28890000      -0.36902400
C        0.37027800       0.02578100      -0.31729600
C        0.36163900      -0.79423200       0.98826200
N        0.03220200      -2.01872800       0.22716700
C       -0.18129200      -1.23573100      -1.00785800
H       -0.50262600       3.18366100       0.43533900
H        1.01181800       2.55868100       0.22949900
H       -0.58099200       1.62831700      -1.42488800
H       -1.51671100       1.05957100      -0.03619600
H        1.39184900       0.26673500      -0.64653500
H       -0.42152300      -0.49414300       1.70230200
H        1.31557800      -0.85527800       1.53658600
H       -0.80084700      -2.50824700       0.56056600
H       -1.24120400      -1.16014000      -1.30485200
H        0.38446800      -1.61110100      -1.87675200
