17
Properties=species:S:1:pos:R:3 pbc="F F F"
C        0.10061100       1.06523700       2.14914100
C       -0.34205600       0.07934500       1.05729000
C        0.15405900       0.50685300      -0.34054800
C       -0.30501600      -0.45348900      -1.44292500
N        0.22568700      -0.04567600      -2.74634600
O        0.12300600      -1.23906600       1.37125300
H       -0.29414200       2.06135100       1.95957600
H        1.18639200       1.13900900       2.19354300
H       -0.25200600       0.74061600       3.12512300
H       -1.44676300       0.01828400       1.04921700
H        1.24789000       0.56607100      -0.34124300
H       -0.20694300       1.51863400      -0.55783200
H       -1.41458800      -0.50515000      -1.44486700
H        0.05095500      -1.46710200      -1.21707100
H       -0.08431600       0.89334000      -2.98344000
H       -0.08486500      -0.68273200      -3.47515400
H        1.08895300      -1.23773500       1.40879200
