17
Properties=species:S:1:pos:R:3 pbc="F F F"
C       -2.70604600       0.10130000       0.52866400
C       -1.19195300       0.21611600       0.63526400
N       -0.53457500      -0.92931700      -0.01527000
C        0.93732000      -0.84951400      -0.00830400
C        1.49306300       0.30107200      -0.82297500
C        2.49353800       1.08998700      -0.43089500
H       -3.19291400       0.93610600       1.02807200
H       -3.06222300      -0.81971400       0.98512800
H       -3.02618000       0.10017600      -0.51225500
H       -0.89154400       0.24048900       1.69374400
H       -0.86124400       1.18144200       0.19843100
H       -0.87121500      -1.01491500      -0.97788200
H        1.32766100      -1.79653400      -0.41923200
H        1.29036700      -0.78579200       1.02969500
H        1.03738700       0.46175600      -1.80136400
H        2.96876600       0.96211900       0.53553400
H        2.86764100       1.88632600      -1.06350900
