19
Properties=species:S:1:pos:R:3 pbc="F F F"
C        0.83508000      -2.03970800       0.25707800
C        0.33507700      -0.61953300       0.54579400
C       -1.20578500      -0.51012000       0.46723800
C       -1.81354900      -0.85792800      -0.88623100
C        1.04812900       0.40023800      -0.37709400
C        0.72428300       1.79081700      -0.05971600
C        0.47303500       2.94399900       0.19966300
H        1.90732100      -2.11447600       0.42961700
H        0.64489000      -2.32734100      -0.77490800
H        0.33954800      -2.76177400       0.90256000
H        0.61630100      -0.37321200       1.58219100
H       -1.63743600      -1.16608000       1.23125700
H       -1.49390200       0.51038900       0.73758000
H       -1.59787000      -1.88627600      -1.16804300
H       -1.43431500      -0.20809100      -1.67182400
H       -2.89485800      -0.74287900      -0.85459700
H        0.79276300       0.20315000      -1.42618100
H        2.13460800       0.26371600      -0.29361900
H        0.24533400       3.95629000       0.42557500
