21
Properties=species:S:1:pos:R:3 pbc="F F F"
C        0.22260100       0.95979000       2.40255500
C       -0.24545600       0.19597800       1.15751600
C        0.60527400       0.59890300      -0.07577300
C        0.12577500      -0.00649700      -1.37816500
C        0.86779900      -0.89528900      -2.05433600
C       -1.20961300       0.45562400      -1.89456200
C       -0.20849200      -1.31792900       1.39545400
H        0.15717800       2.03512600       2.24822900
H        1.25570900       0.71845200       2.64498700
H       -0.39005000       0.70529800       3.26501200
H       -1.29026900       0.48428300       0.95853800
H        1.64714800       0.31395600       0.09897600
H        0.58742100       1.69266900      -0.16328000
H        1.83073900      -1.22114400      -1.68136700
H        0.52555900      -1.31553000      -2.99202000
H       -1.22076000       1.53861900      -2.02382600
H       -2.00716000       0.21247300      -1.19124300
H       -1.44690400      -0.00545300      -2.84993400
H        0.80460000      -1.65489300       1.60559500
H       -0.56619500      -1.85658100       0.52124700
H       -0.83434400      -1.59074900       2.24294500
