16
Properties=species:S:1:pos:R:3 pbc="F F F"
N       -2.03465900       0.04583200      -0.64382700
C       -0.56494500       0.04652200      -0.64076400
C        0.02862100      -1.21698100       0.01533100
N        1.24914700      -0.78152900       0.72163900
C        1.40635300       0.67671300       0.59124800
C        0.02887300       1.19715500       0.18655600
H       -2.39248800      -0.73302600      -1.19157200
H       -2.39197300       0.91003700      -1.04373700
H       -0.17090300       0.12344800      -1.68343300
H        0.26033900      -1.99958400      -0.72440900
H       -0.69461100      -1.66154800       0.72246500
H        2.07812300      -1.28292600       0.40343400
H        2.16168700       0.93303200      -0.17753700
H        1.76222400       1.12549500       1.53449300
H        0.08178400       2.13789300      -0.36953600
H       -0.58900800       1.37660200       1.07091600
