19
Properties=species:S:1:pos:R:3 pbc="F F F"
C        1.39654600       1.11874400       0.80776600
C        0.77769700      -0.00428600      -0.05271300
C       -0.77614100      -0.03791000       0.03325200
C       -1.34392000      -1.15476500      -0.85322300
C       -1.40953500       1.30968400      -0.33724000
N        1.31855900      -1.32578800       0.33333700
H        2.48302400       1.05579800       0.78554600
H        1.08052100       1.03847200       1.84632300
H        1.11558200       2.10465900       0.44538200
H        1.06509200       0.17226900      -1.10556100
H       -1.04828500      -0.26352600       1.07764100
H       -1.12224900      -0.96859000      -1.90246700
H       -2.42514200      -1.22066900      -0.74636800
H       -0.91424700      -2.11652000      -0.58540200
H       -1.10322300       1.62773600      -1.33210100
H       -1.13141200       2.09115000       0.36635700
H       -2.49491800       1.23326500      -0.33386600
H        1.06369700      -1.54225200       1.29436700
H        2.33376100      -1.32007700       0.26973300
