18
Properties=species:S:1:pos:R:3 pbc="F F F"
C       -0.75751900      -0.32490300      -1.73032900
C       -0.78450000      -0.45232000      -0.21171300
C        0.18286300      -1.48498000       0.40633000
C        0.82884700      -0.38731100       1.26021800
C       -0.11248200       0.66779500       0.63948200
C        0.56346700       1.82230000      -0.09125900
H       -1.17628900      -1.21652900      -2.19470000
H        0.25727200      -0.20299900      -2.10328000
H       -1.34366900       0.53062800      -2.06192800
H       -1.82327700      -0.62294800       0.10838700
H        0.86296500      -1.94847000      -0.31234500
H       -0.30097000      -2.28384500       0.97445100
H        1.88969400      -0.22378600       1.05558000
H        0.71123400      -0.52109100       2.33877900
H       -0.81277700       1.08268500       1.38004400
H        1.29399200       1.46519900      -0.81410800
H        1.08432000       2.46693200       0.61533800
H       -0.16655100       2.43073900      -0.62259200
