15
Properties=species:S:1:pos:R:3 pbc="F F F"
C       -3.36069700      -0.77086100       0.53329900
C       -1.83844600      -0.77884300       0.53844200
C       -1.24879400       0.39034900      -0.26998300
C        0.21422500       0.39629100      -0.27413100
C        1.43221100       0.39659700      -0.27428600
C        2.81952900       0.40214200      -0.27809900
C        4.03584200       0.40795500      -0.28209500
H       -3.75130000      -1.60575300       1.11073600
H       -3.75048800      -0.85164600      -0.47970600
H       -3.75011200       0.14849400       0.96664800
H       -1.47277600      -1.72400600       0.12629800
H       -1.47242400      -0.72724000       1.56813600
H       -1.61214300       1.34338400       0.13904300
H       -1.61220900       0.34425900      -1.30603200
H        5.09824100       0.41072600      -0.28400400
