11
Properties=species:S:1:pos:R:3 pbc="F F F"
C       -1.06812400      -0.72067900       1.07025600
O       -1.63114300       0.00806800      -0.01291500
C       -0.83214300       0.60710800      -0.90269200
C        0.52760800       0.64161700      -0.95317700
C        1.45023300       0.03226700      -0.04701500
N        2.25956100      -0.43004900       0.64045500
H       -1.89920800      -1.11783300       1.65987000
H       -0.45599300      -0.06459900       1.70144700
H       -0.45537900      -1.55209100       0.70034200
H       -1.40941600       1.12646000      -1.67488600
H        0.98677300       1.19198200      -1.77086500
