16
Properties=species:S:1:pos:R:3 pbc="F F F"
C       -2.38534700       0.67375200       0.26822800
O       -0.97328100       0.57692100       0.23242800
C       -0.49921700      -0.65500500      -0.31912000
C        1.03635300      -0.59613500      -0.34567000
O        1.42385000       0.59514100      -1.03477800
C        1.64567300      -0.61951400       1.06530500
H       -2.64925200       1.64480700       0.69756800
H       -2.82611200      -0.12645800       0.88899500
H       -2.81899500       0.59725000      -0.74481500
H       -0.90801300      -0.78451800      -1.34221900
H       -0.86680300      -1.51044600       0.28628800
H        1.42828300      -1.45291700      -0.92827400
H        0.85413200       1.30858800      -0.70660700
H        1.23967500       0.18649900       1.67273900
H        2.72474700      -0.49555300       1.01556400
H        1.43301800      -1.56233300       1.56710200
