11
Properties=species:S:1:pos:R:3 pbc="F F F"
C       -1.44634600      -0.43647600       0.37074200
C        0.07663700      -0.50436600       0.28252800
O        0.69620600      -1.43852400       0.76582400
C        0.80972900       0.60399800      -0.41408500
C        0.23363600       1.67110000      -0.97610800
H       -1.83230600      -1.30502300       0.89573300
H       -1.88976500      -0.40435500      -0.62334700
H       -1.76410200       0.46040100       0.90052500
H        1.89347800       0.49998200      -0.44641200
H       -0.84224600       1.81304000      -0.96687100
H        0.82336000       2.43860800      -1.46468800
