19
Properties=species:S:1:pos:R:3 pbc="F F F"
C       -1.61566000       1.00161200       1.40049100
C       -0.10363500       0.93083000       1.37606200
C        0.68110600       1.69135000       0.34493800
C        0.65350600       0.18863500       0.30546900
C       -0.04620400      -0.53866400      -0.82066400
C        0.76256100      -1.28926900      -1.83696300
C       -0.06965800      -2.03833600      -0.84351700
H       -1.95185100       1.85116500       1.99474600
H       -2.04532600       0.10209100       1.84103700
H       -2.02585000       1.11411100       0.39974000
H        0.34761300       0.89257200       2.36985000
H        1.59937400       2.18177400       0.65443700
H        0.12189100       2.22475000      -0.41719100
H        1.56764000      -0.30530300       0.64154300
H       -0.93956800      -0.04132200      -1.20057900
H        1.84043400      -1.31767300      -1.71324800
H        0.42991600      -1.27585100      -2.87004900
H        0.44966900      -2.56949700      -0.05227200
H       -0.96604000      -2.53376200      -1.20291400
