19
Properties=species:S:1:pos:R:3 pbc="F F F"
C       -2.85331200       0.91118500      -0.10200900
C       -1.71928000       0.55875300      -0.70848200
C       -0.96363700      -0.70916200      -0.42505500
C        0.49176300      -0.52161000      -0.01705700
C        0.96001900       0.67533600       0.38265900
C        2.35255200       1.00599600       0.82344800
C        1.31226400      -1.78351800      -0.08006000
H       -3.36997200       1.82664800      -0.36324500
H       -3.29439900       0.29645200       0.67418900
H       -1.30592300       1.20323100      -1.48508000
H       -0.98910300      -1.34065000      -1.32599000
H       -1.48372300      -1.28690500       0.35081200
H        0.26548900       1.51485900       0.39380900
H        3.00710000       0.13878000       0.84441300
H        2.34340200       1.44610300       1.82222300
H        2.80016200       1.74774200       0.15850900
H        0.83321200      -2.58114800       0.48974600
H        2.31703800      -1.64811300       0.30904500
H        1.39450500      -2.13888900      -1.10908900
