12
Properties=species:S:1:pos:R:3 pbc="F F F"
C        1.15983800       0.60428900       0.14071200
C        1.59320800      -0.83577100       0.38364200
O        0.23540600      -1.23876000       0.66782400
C       -0.25624700       0.11299100       0.47446400
C       -1.31900300       0.18889300      -0.62369600
O       -1.70936400       1.22908200      -1.09439200
H        1.29304200       0.97348300      -0.87920400
H        1.56671500       1.34640400       0.83241700
H        2.25838000      -1.00327800       1.24908100
H        2.00632300      -1.37624900      -0.48648700
H       -0.67046500       0.52133100       1.42085900
H       -1.72910400      -0.80668300      -0.97486300
