16
Properties=species:S:1:pos:R:3 pbc="F F F"
C        0.18986900      -2.27373300       0.64332900
C       -0.22613500      -1.10473600      -0.23972300
C        0.27589100       0.25369200       0.28948000
C       -0.26692500       1.43872400      -0.54526600
O       -1.68500800       1.51325400      -0.47179400
O        1.71029400       0.29619900       0.29854500
H       -0.13722300      -3.21947800       0.21632100
H       -0.24435500      -2.18489600       1.63711700
H        1.27117500      -2.30823000       0.75626100
H       -1.31637800      -1.06734500      -0.32353000
H        0.15614800      -1.25633200      -1.25652900
H       -0.04546200       0.38035100       1.34213700
H        0.18300300       2.38655400      -0.19122600
H       -0.00040300       1.32387500      -1.60659400
H       -1.95804800       1.68654200       0.43870200
H        2.05306600      -0.10034600      -0.51359200
