21
Properties=species:S:1:pos:R:3 pbc="F F F"
C       -1.15580600      -1.45333500      -2.42492100
C       -0.18113400      -1.88885500      -1.37587500
C        0.10258800      -1.26957500      -0.22142100
C       -0.50396900       0.00776700       0.29422200
C        0.54807500       1.07670800       0.69317600
C       -0.13735300       2.42463100       0.95574900
C        1.37501500       0.64639800       1.91127000
H       -0.66456400      -1.37678200      -3.39615800
H       -1.61054200      -0.49267900      -2.19846500
H       -1.95570200      -2.18825500      -2.53375600
H        0.34246100      -2.81997900      -1.59547400
H        0.84195400      -1.73535100       0.43074600
H       -1.12290400      -0.21814400       1.17370400
H       -1.17794700       0.43656900      -0.45296800
H        1.23710800       1.20894500      -0.15564200
H       -0.84351500       2.35132500       1.78078300
H       -0.68335800       2.76249400       0.07705400
H        0.59440400       3.18833000       1.21130600
H        0.73838300       0.48614600       2.77943600
H        2.10394300       1.41194800       2.16987700
H        1.91578400      -0.27699500       1.71635700
