19
Properties=species:S:1:pos:R:3 pbc="F F F"
C       -2.70895500      -0.21874100      -1.52399900
C       -2.00543300      -0.81858400      -0.56318800
C       -1.55124600      -0.14916100       0.70523500
C       -0.05312500      -0.34177000       0.98759000
C        0.84200900       0.30242600      -0.08240200
C        2.30550200       0.08824600       0.18745300
C        3.21619400       1.06115400       0.23226000
H       -3.02309100      -0.75635200      -2.41029200
H       -2.99043400       0.82554700      -1.45139600
H       -1.73896000      -1.87067700      -0.67210800
H       -2.11748400      -0.57040900       1.54747300
H       -1.79241100       0.91789600       0.67098500
H        0.17181800      -1.41218800       1.05319800
H        0.18331300       0.08479900       1.96791200
H        0.62574400       1.37271500      -0.15527200
H        0.58936100      -0.13302300      -1.05842500
H        2.61861700      -0.94446400       0.34785900
H        2.94326000       2.09909000       0.08057600
H        4.26058600       0.84564200       0.42180000
