15
Properties=species:S:1:pos:R:3 pbc="F F F"
N        0.14439100       0.83231500       1.72499900
C       -0.53353800      -0.40765700       1.33459300
C       -0.15283400      -0.77962800      -0.11764200
C       -0.74566100       0.20115800      -1.11924200
C       -0.03944400       0.85665200      -2.03911900
O        1.26432800      -0.85467600      -0.21956800
H       -0.07082700       1.07515400       2.68888100
H       -0.14301500       1.60076700       1.12227700
H       -1.63701500      -0.33025200       1.42596600
H       -0.21502500      -1.20835600       2.01525600
H       -0.55674200      -1.79005700      -0.34172300
H       -1.82634900       0.34430300      -1.06084300
H        1.03228400       0.71406600      -2.11512500
H       -0.51350300       1.53300900      -2.74065300
H        1.63369100      -0.15058300       0.33597100
