14
Properties=species:S:1:pos:R:3 pbc="F F F"
C       -1.48460000      -0.04320000       0.01382400
C        0.03195900       0.02400100       0.00199400
N        0.75387400       1.05607500      -0.36514300
N        0.13992700       2.23471400      -0.74970700
C        0.78349600      -1.16220000       0.43568000
C        0.25225400      -2.32541800       0.84443300
H       -1.95394600       0.86766500      -0.34598600
H       -1.84724800      -0.22275400       1.02582500
H       -1.83714900      -0.86993400      -0.60313200
H        0.74603000       2.79149000      -1.35267500
H       -0.79803000       2.13137700      -1.14181900
H        1.86840400      -1.05975700       0.41082000
H       -0.81870100      -2.48255000       0.88952400
H        0.88537400      -3.15015400       1.14581300
