19
Properties=species:S:1:pos:R:3 pbc="F F F"
C       -1.40026000       1.92773400      -1.29182900
C        0.07714600       1.62844900      -1.06067000
C        0.30752500       0.61317100       0.05093900
C        1.57772800      -0.16915700       0.10593000
C        0.29066800      -0.86958900      -0.25663500
C       -0.34654200      -1.83790300       0.67604600
C       -0.29231000      -1.79174700       2.01087900
H       -1.52828600       2.66439400      -2.08231400
H       -1.86497900       2.31939700      -0.38936000
H       -1.94066100       1.02868800      -1.57983700
H        0.59961300       2.56122100      -0.81428500
H        0.52718900       1.26128600      -1.98892900
H       -0.12175900       0.89010500       1.01536300
H        2.00562000      -0.38515800       1.08007500
H        2.30534300      -0.02321100      -0.68716500
H        0.18287700      -1.12767400      -1.31070300
H       -0.90705000      -2.64404000       0.20175900
H        0.25018400      -1.01241300       2.53278300
H       -0.79182000      -2.53834600       2.61465300
