18
Properties=species:S:1:pos:R:3 pbc="F F F"
C       -1.03971000       2.00321000       0.06006900
C       -1.34790600       0.78422300       0.92018200
C       -0.83656300      -0.53714200       0.32641400
C        0.68308600      -0.62697300       0.26161600
C        1.33804900      -1.69041600      -0.56692100
C        1.42746100      -0.25586300      -0.98473900
H       -1.43461600       2.90785900       0.51820500
H       -1.48401600       1.90660600      -0.92849100
H        0.03239600       2.13231700      -0.06787000
H       -2.43133900       0.71022600       1.06467500
H       -0.91494100       0.92502000       1.91656700
H       -1.25530800      -0.67898800      -0.67511200
H       -1.21977500      -1.36277800       0.94000800
H        1.18411800      -0.38552900       1.20102700
H        0.70309100      -2.34651700      -1.15381500
H        2.23488500      -2.16382600      -0.17980400
H        0.85296300       0.05012000      -1.85303200
H        2.38604200       0.24326000      -0.88208200
