16
Properties=species:S:1:pos:R:3 pbc="F F F"
C       -1.83313100       0.02491800       0.85439200
C       -0.32331900      -0.08483300       0.81109300
C        0.51856100       0.74524200      -0.12465100
C        0.36952700      -0.75227800      -0.34752800
N        1.47254900      -1.67187900      -0.08165600
N       -0.10019200       1.71976400      -1.01648500
H       -2.15001700       0.90932900       1.40689100
H       -2.26752800      -0.84480100       1.34649700
H       -2.26091000       0.08373100      -0.14488400
H        0.12890100      -0.26499500       1.78916400
H        1.47807300       1.08549100       0.28066900
H       -0.27051300      -1.06548300      -1.17884400
H        1.84066600      -1.54002500       0.85627900
H        2.22994700      -1.54267300      -0.74984500
H       -1.08604400       1.51765600      -1.15467300
H        0.36109300       1.72828700      -1.92411200
