15
Properties=species:S:1:pos:R:3 pbc="F F F"
C       -1.61463700      -1.32183900      -0.54731600
C       -0.88162100      -0.29182700      -0.08740900
C       -1.01779000       0.17149300       1.27134300
C       -1.11368600       0.58993400       2.40473800
C        0.11040700       0.45422200      -0.96322600
C        1.51268500       0.42190200      -0.41290000
C        2.58355600       0.05666800      -1.11730800
H       -2.32482800      -1.83450900       0.08864200
H       -1.50821600      -1.66800300      -1.56806700
H       -1.21685400       0.93638300       3.40415300
H       -0.21293700       1.50400700      -1.03383600
H        0.08859100       0.04556600      -1.97732600
H        1.62589300       0.72906600       0.62651900
H        2.50196500      -0.26021500      -2.15077900
H        3.57291000       0.06438000      -0.67683000
