21
Properties=species:S:1:pos:R:3 pbc="F F F"
C       -0.92475100      -1.61721100      -2.35724100
C       -1.54379500      -1.39705800      -0.98208600
C       -1.00109800      -0.16239600      -0.24811200
C        0.45328500      -0.32701600       0.22734800
C        0.99158800       0.90117800       0.93242200
C        1.98521900       1.63084800       0.40600300
C        0.37458000       1.25500600       2.25793400
H       -1.35702900      -2.49225500      -2.83823800
H        0.15000000      -1.77125400      -2.28911500
H       -1.09754800      -0.75922700      -3.00391200
H       -1.38782200      -2.28818000      -0.36454000
H       -2.62796200      -1.28802300      -1.09438300
H       -1.64053900       0.04266800       0.61732800
H       -1.07513600       0.71303400      -0.90100100
H        1.09224500      -0.56256300      -0.62855800
H        0.50712300      -1.18701300       0.90724800
H        2.42922100       1.37007300      -0.54672600
H        2.37200400       2.50433100       0.91616300
H        0.47914100       0.43165600       2.96563900
H       -0.69351400       1.44887000       2.15306400
H        0.83965300       2.13778000       2.68943000
