17
Properties=species:S:1:pos:R:3 pbc="F F F"
C       -1.59691500      -0.94048600       0.05835200
C       -0.09154200      -0.85067500      -0.23186900
C        0.18515200       0.08577200      -1.38928100
C        0.74532900      -0.28937100      -2.53878500
C        0.69479100      -0.41106200       1.03490900
C        0.32342800       0.91535000       1.52606900
C        0.02800000       2.00902300       1.94667400
H       -2.13759500      -1.29670200      -0.81571300
H       -1.99805000       0.03274300       0.33179000
H       -1.78969300      -1.62822800       0.87994500
H        0.26977500      -1.85573900      -0.50167800
H       -0.10283700       1.12656500      -1.24302600
H        1.04243500      -1.31703400      -2.71648500
H        0.92186100       0.42198000      -3.33644200
H        1.77069800      -0.42143000       0.81866800
H        0.52791300      -1.14490200       1.83483600
H       -0.23396500       2.97143800       2.31168800
