21
Properties=species:S:1:pos:R:3 pbc="F F F"
C       -2.90535100       0.41304300       1.45663600
C       -1.39357900       0.45887700       1.27106200
C       -0.98859200       0.73853300      -0.18161200
C        0.52949500       0.85123800      -0.38916000
C        1.27633000      -0.46178400      -0.19057000
C        1.40264600      -1.44050900      -1.31785800
C        2.60361200      -0.67761000      -0.85193200
H       -3.16343900       0.20497000       2.49302700
H       -3.35223100      -0.36248700       0.83777900
H       -3.36335300       1.36113800       1.18105600
H       -0.95952500      -0.49147100       1.59835000
H       -0.97003600       1.23069800       1.92298200
H       -1.45953200       1.67223400      -0.50866200
H       -1.38913400      -0.04884200      -0.82858700
H        0.93293400       1.60767900       0.29589300
H        0.72158100       1.22044400      -1.40224300
H        1.16929800      -0.89876100       0.80369300
H        0.97835100      -1.17048900      -2.27940100
H        1.35362500      -2.50002900      -1.08771200
H        2.98584000       0.10363600      -1.50117700
H        3.36825800      -1.21945400      -0.30439800
