21
Properties=species:S:1:pos:R:3 pbc="F F F"
C       -1.90772500       1.77445900       0.20441600
C       -0.43782200       1.42340000      -0.00532700
C        0.00383400       0.24037400       0.84745200
C        1.23988200      -0.56846200       0.53835300
C       -0.12743400      -1.19263600       0.39233700
C       -0.71041100      -1.57562800      -0.95125200
C        2.13590400      -0.27660000      -0.64670600
H       -2.19135100       2.63391700      -0.39978100
H       -2.10730700       2.01703800       1.24655200
H       -2.55185100       0.94222100      -0.07160900
H        0.17831800       2.29670900       0.24301400
H       -0.26163700       1.21766200      -1.06489200
H       -0.18268200       0.39543300       1.91349000
H        1.79807600      -0.89899500       1.41814700
H       -0.39055900      -1.89835400       1.18452600
H       -0.43547500      -0.87092700      -1.73164900
H       -1.79888300      -1.61232300      -0.90464700
H       -0.36253700      -2.56259300      -1.25643900
H        1.57140300       0.04883900      -1.51662100
H        2.70175100      -1.16392800      -0.93104100
H        2.85536700       0.50586800      -0.40469200
