15
Properties=species:S:1:pos:R:3 pbc="F F F"
C       -1.63327200       0.81849300      -0.26979000
C       -0.09842500       0.75597400      -0.28303400
C        0.42086200      -0.34105100       0.67217400
O        1.11246900      -0.08370300       1.65533000
N        0.09507600      -1.65282200       0.35332700
C        0.44371500       0.55318400      -1.70556300
H       -2.00505300       0.98592600       0.73849300
H       -2.07275900      -0.10594500      -0.64260500
H       -1.98793400       1.63101200      -0.90047600
H        0.28454800       1.71154800       0.09716200
H       -0.62147800      -1.84782900      -0.33256900
H        0.29968900      -2.36876300       1.03960400
H        0.09516000      -0.38568400      -2.13307300
H        1.53113700       0.54086000      -1.70644100
H        0.11412200       1.35865700      -2.35874500
