17
Properties=species:S:1:pos:R:3 pbc="F F F"
C       -1.67813000       0.23678900      -0.18245700
C       -0.14028300       0.22859200      -0.15226800
C        0.36376400       1.01581700       1.04051000
C        1.14458000       2.09266100       0.95769600
C        0.42321200      -1.21443200      -0.11197600
N        0.15169100      -1.93408400      -1.35709700
H       -2.05794800       1.25614200      -0.19664400
H       -2.08928400      -0.26177000       0.69399100
H       -2.05507100      -0.27197700      -1.06745800
H        0.22574200       0.71126000      -1.07024700
H        0.05067900       0.65581900       2.02200600
H        1.47383200       2.48014800       0.00024500
H        1.47657200       2.61791800       1.84518100
H        0.01227000      -1.74394900       0.77399000
H        1.51185000      -1.17214200       0.03121400
H       -0.84855400      -2.02447700      -1.51496400
H        0.55921000      -2.86494200      -1.32666600
