14
Properties=species:S:1:pos:R:3 pbc="F F F"
C       -1.75535400      -0.01627700      -0.22452700
C       -0.22294100      -0.00776600      -0.31813200
O        0.18008500      -0.02226400      -1.69436800
C        0.50747200       1.03855800       0.55447500
O        1.07678100      -0.01664100       1.36065300
C        0.52257200      -1.05449600       0.52091900
H       -2.18052000       0.86624600      -0.70309300
H       -2.08402000      -0.02617800       0.81260700
H       -2.16719800      -0.89423900      -0.71895800
H       -0.32486100       0.63294300      -2.19545800
H       -0.11685600       1.72583000       1.15420900
H        1.28931800       1.62444200       0.04019600
H       -0.09191900      -1.76851700       1.09836900
H        1.31063600      -1.60939600      -0.01455300
