18
Properties=species:S:1:pos:R:3 pbc="F F F"
C       -1.72552800      -1.48839100      -0.23848300
C       -0.21762100      -1.29025900      -0.15817700
C        0.26606200       0.07778000      -0.68823400
C       -0.23877500       1.28144100       0.15183600
N        0.33953900       1.28253000       1.49932900
N        1.74178400       0.06752100      -0.77027300
H       -2.00148600      -2.48430600       0.10240200
H       -2.08244300      -1.37571800      -1.26077900
H       -2.25920400      -0.76890500       0.37974800
H        0.27802500      -2.07457600      -0.73817400
H        0.11617700      -1.42443600       0.87656100
H       -0.12280500       0.20471700      -1.71609900
H       -1.34851300       1.28586100       0.17686000
H        0.06005600       2.21350300      -0.35017300
H        0.06165600       0.44774100       2.00930300
H        0.02623200       2.09693400       2.02094600
H        2.12785400       0.00424800       0.17011600
H        2.07036200       0.94116100      -1.17575400
