21
Properties=species:S:1:pos:R:3 pbc="F F F"
C       -1.55568600       1.30490100      -0.74483700
C       -1.53918500      -0.10852000      -1.31298600
C       -0.96784000      -1.16867000      -0.35910600
C        0.56561600      -1.15336100      -0.21458700
C        1.14572900       0.00225700       0.57446100
C        2.08803400       0.80089000       0.05187800
C        0.67120200       0.17291700       1.99173500
H       -2.00401200       1.99684900      -1.45522700
H       -0.55023100       1.65307300      -0.52402200
H       -2.13541700       1.34832100       0.17535900
H       -0.97171000      -0.11956400      -2.24963000
H       -2.56394300      -0.39650900      -1.57381400
H       -1.25517800      -2.15678500      -0.73661900
H       -1.43602800      -1.07107500       0.62578000
H        1.02270600      -1.17910900      -1.20871700
H        0.86198300      -2.08548200       0.28619400
H        2.43106700       0.67095000      -0.96705900
H        2.52805600       1.60395100       0.63014100
H       -0.39070800       0.41941700       2.02197500
H        1.21683500       0.96427800       2.49927900
H        0.79935500      -0.75080200       2.55701600
