16
Properties=species:S:1:pos:R:3 pbc="F F F"
O       -1.61154200       1.17974300      -0.84109100
C       -1.56782700      -0.23876700      -0.88803400
C       -0.98123800      -0.79841200       0.41659400
O        0.44567800      -0.88077200       0.39651800
C        1.10587200       0.38624400       0.46974800
C        2.60343100       0.16015300       0.57559100
H       -1.96306400       1.52339900      -1.67270600
H       -0.96945900      -0.57434700      -1.75818700
H       -2.59569200      -0.63590800      -1.03821200
H       -1.34880100      -1.82573900       0.57424300
H       -1.31600000      -0.18511800       1.27556100
H        0.73150700       0.95002200       1.34997700
H        0.86671400       0.99465200      -0.42473800
H        2.84610200      -0.44460900       1.44689800
H        3.13120500       1.10807800       0.66340900
H        2.98297000      -0.35750100      -0.30304700
