16
Properties=species:S:1:pos:R:3 pbc="F F F"
C       -2.83050700       0.10445900      -0.42673600
N       -1.38482600       0.09530200      -0.46909700
C       -0.63253400      -0.71353300       0.37409400
N        0.65009700      -0.63795200       0.56285500
C        1.40666000       0.41102000      -0.13216500
C        2.87515900       0.39670000       0.27550200
H       -3.24711700       0.30389400      -1.42078100
H       -3.23175100       0.87173700       0.25702100
H       -3.19564200      -0.86713000      -0.08993900
H       -0.94024600       0.94104700      -0.81665400
H       -1.20547000      -1.50828000       0.87847600
H        0.97509100       1.41064100       0.07925100
H        1.32726700       0.27866800      -1.22856300
H        2.98315100       0.56194300       1.34505900
H        3.43128300       1.17511500      -0.24458200
H        3.33386800      -0.56096400       0.04024000
