18
Properties=species:S:1:pos:R:3 pbc="F F F"
C       -1.48554700       1.34711700      -0.34461300
C       -2.45195500       0.20339700      -0.34546400
C       -0.97876900      -0.06181500      -0.40505300
C       -0.27158700      -0.68252900       0.79108000
C        1.25082400      -0.59848700       0.72698800
C        1.98262600       0.51535100       0.06020000
N        1.90962900      -0.80615200      -0.56515900
H       -1.36187200       1.89721600       0.58298000
H       -1.42103200       1.95781700      -1.23966800
H       -3.04051600       0.03807000      -1.24223300
H       -2.97614000      -0.01252100       0.58020100
H       -0.58986200      -0.38958300      -1.36919100
H       -0.55654600      -1.74073500       0.87557100
H       -0.61879100      -0.20475400       1.71552700
H        1.75402500      -1.05650900       1.59058000
H        2.94968200       0.82423300       0.46374300
H        1.42946800       1.30260700      -0.45211700
H        2.79062100      -1.31098200      -0.44811400
