15
Properties=species:S:1:pos:R:3 pbc="F F F"
C       -1.53290500       0.24672200       0.88792500
C       -0.00645000       0.17393200       0.75421300
C        0.43757400      -1.18056400       0.32873900
C        0.84668500      -2.26489200      -0.01452300
N        0.52327400       1.23560900      -0.13534900
C        0.08826100       1.15358600      -1.53106200
H       -1.88268500      -0.45990300       1.63706200
H       -2.02626400       0.01062500      -0.05163000
H       -1.83878100       1.24598900       1.18950900
H        0.43443600       0.35741600       1.75520400
H        1.18703500      -3.22404100      -0.31965200
H        1.54562600       1.21111400      -0.10187100
H       -0.98503300       1.34495400      -1.61087500
H        0.29351700       0.17369800      -1.99194600
H        0.61024300       1.91818200      -2.11010900
