14
Properties=species:S:1:pos:R:3 pbc="F F F"
C       -1.41456200       0.09020800       0.24485900
C       -0.64015700      -1.22807000       0.06225500
C        0.77192000      -0.77575300      -0.26699800
C        0.69319800       0.69207100      -0.51937200
O       -0.64664300       1.13238400      -0.37107200
C        1.39493000       0.19922800       0.71336700
H       -1.55866000       0.31965200       1.32104100
H       -2.41695300       0.07406000      -0.21543000
H       -1.04806200      -1.82202300      -0.76364300
H       -0.69642600      -1.85575700       0.95860000
H        1.42466800      -1.43609800      -0.83685600
H        1.23598500       1.22096300      -1.30827400
H        0.92105500       0.32649600       1.68075900
H        2.47955900       0.24753500       0.72771600
