10
Properties=species:S:1:pos:R:3 pbc="F F F"
O        0.74731600      -1.10792200       0.77571300
C        0.17748500       0.16285300       0.53873200
C       -1.29923100       0.12552100       0.50878000
C       -2.50607800       0.15501300       0.46187200
C        0.74695400       0.70015600      -0.79319000
O        1.58753700       0.07936900      -1.39369400
H        1.32728200      -1.32039600       0.02083000
H        0.48781600       0.86863300       1.34788700
H       -3.56880100       0.12711600       0.44708400
H        0.36010400       1.69180700      -1.16912300
