16
Properties=species:S:1:pos:R:3 pbc="F F F"
C       -0.54593500       0.81488500       1.66565100
C       -0.88990400       0.86625000       0.19325100
C        0.03002500       1.52349200      -0.79311000
C       -0.16353900       0.03319600      -0.83149800
C        0.98108100      -0.90262500      -0.46458700
O        0.50604700      -2.13630900       0.05902700
H       -0.87142000       1.72491300       2.16940100
H        0.52491100       0.71207600       1.82177600
H       -1.03827700      -0.02624000       2.15169900
H       -1.95540200       1.00493900      -0.00265700
H        0.98222600       1.89416200      -0.42589100
H       -0.40588900       2.11902800      -1.58965400
H       -0.78627300      -0.33498500      -1.65153300
H        1.60774300      -1.09479500      -1.36448700
H        1.63793900      -0.45188900       0.29321400
H       -0.21430800      -2.46792900      -0.49232500
