11
Properties=species:S:1:pos:R:3 pbc="F F F"
C       -1.21749200      -1.19558500      -1.94466800
C       -1.56214900      -0.24057000      -1.06700200
C       -0.70685300       0.31359900      -0.02109000
C        0.56853100      -0.06140300       0.22728500
C        1.36055000       0.51719000       1.27010400
N        2.02295500       0.96617900       2.10419100
H       -1.92159100      -1.54671600      -2.68830500
H       -0.23194200      -1.64744200      -1.94384100
H       -2.56713300       0.17622800      -1.11772700
H       -1.15164200       1.08955200       0.59957400
H        1.05610400      -0.83425600      -0.36680800
