23
Properties=species:S:1:pos:R:3 pbc="F F F"
C       -0.10939500       1.92035900      -1.14257300
C       -0.62242700       0.48527700      -1.18313000
C        0.01172500      -0.54195000      -0.18796400
C       -0.51525000      -0.36701000       1.27464500
C        0.02011600       0.80648100       2.08708600
C       -0.43964200      -1.95211900      -0.65354800
C        1.55305500      -0.48839500      -0.23799900
H       -0.58633700       2.50206200      -1.92934600
H        0.96465900       1.96802400      -1.30539200
H       -0.32906000       2.40964100      -0.19781400
H       -0.46653300       0.10256600      -2.19805100
H       -1.70690300       0.48978400      -1.02933500
H       -0.28159900      -1.28713500       1.82223200
H       -1.60871400      -0.30895700       1.24125900
H        1.10540600       0.78791600       2.15230700
H       -0.37062100       0.75739000       3.10189600
H       -0.27672400       1.76535600       1.67145200
H       -1.52414800      -2.04206800      -0.62802300
H       -0.02467400      -2.72580600      -0.01032600
H       -0.11071200      -2.15213300      -1.67140700
H        1.93450500       0.48029800       0.07440600
H        1.90905000      -0.67832100      -1.24870600
H        1.98331100      -1.24447100       0.41574700
