19
Properties=species:S:1:pos:R:3 pbc="F F F"
C       -2.19944200      -0.01985600      -2.35818900
C       -1.14231600       0.88172800      -1.72303200
C       -0.64700500       0.36056200      -0.40216600
C        0.65478900       0.20012200      -0.09943000
C        1.17684700      -0.28927700       1.18401000
C        2.50690700      -0.41113400       1.37260900
C        0.20493800      -0.64929100       2.27559500
H       -2.55458900       0.40485900      -3.29489600
H       -3.05533300      -0.14275900      -1.69742300
H       -1.79559100      -1.00752100      -2.56836800
H       -1.57797700       1.88001100      -1.57301700
H       -0.30193700       1.01274700      -2.41227000
H       -1.41100100       0.11442000       0.33540500
H        1.40370100       0.44693400      -0.85272200
H        3.20804100      -0.15245900       0.58843500
H        2.91231800      -0.76908900       2.31040300
H       -0.40833700       0.20867700       2.55262400
H        0.72595100      -0.99451800       3.16491300
H       -0.47355600      -1.43842700       1.95054100
