17
Properties=species:S:1:pos:R:3 pbc="F F F"
C        0.06406100       0.79543300       2.19716900
C       -0.27068800       0.81603500       0.72130500
C        0.67319900       1.45155700      -0.25924000
C        0.49664400      -0.03936900      -0.24772800
C       -0.20898400      -0.72924600      -1.40630700
N       -0.73248200      -2.03899100      -1.00430900
H       -0.22359000       1.72988800       2.67930700
H        1.13112100       0.65274100       2.35459000
H       -0.46085200      -0.01212400       2.70700600
H       -1.33204000       0.94529000       0.50369500
H        1.60729500       1.85528900       0.11861000
H        0.24654000       2.00916500      -1.08784400
H        1.32709000      -0.60858900       0.17519500
H        0.49381800      -0.81803600      -2.26501200
H       -1.04472000      -0.10716000      -1.75845800
H        0.01091800      -2.62369200      -0.63134400
H       -1.15359800      -2.51629300      -1.79678100
