18
Properties=species:S:1:pos:R:3 pbc="F F F"
C       -0.84824900      -0.34247500      -2.43915900
C       -1.64278300      -0.64583000      -1.17756800
C       -0.98664400      -0.24650700       0.11882300
C        0.20728100       0.34243300       0.25440300
C        0.80252600       0.73516200       1.58224500
C        2.21464000       0.18934200       1.78338400
H       -1.40047300      -0.66212100      -3.32051700
H        0.10818300      -0.86075400      -2.43769000
H       -0.65224600       0.72311800      -2.53635300
H       -1.86706700      -1.72082200      -1.14003800
H       -2.62310500      -0.15312900      -1.23924400
H       -1.56640200      -0.47215600       1.01545200
H        0.80509400       0.57265500      -0.62656900
H        0.15425700       0.39631700       2.39687500
H        0.83700200       1.83160700       1.65052400
H        2.21920100      -0.89828300       1.77396700
H        2.62384300       0.51874900       2.73638300
H        2.88109200       0.53207300       0.99444000
