19
Properties=species:S:1:pos:R:3 pbc="F F F"
C       -1.53811500      -0.83268900      -1.38379500
C       -0.06901200      -0.65798000      -1.02956000
C        0.29999200       0.11467700       0.22638600
C       -0.51690900       0.82108200       1.04729500
C       -1.99535700       1.05378000       0.96532500
C        1.73206900       0.10265500       0.57897600
C        2.72349100      -0.49112900      -0.10233400
H       -1.62395700      -1.45167700      -2.27535600
H       -2.02195800       0.11639400      -1.59875300
H       -2.08828000      -1.32842100      -0.58796900
H        0.44375300      -0.18413900      -1.87785400
H        0.38357700      -1.65451300      -0.94801100
H       -0.03200500       1.30440700       1.89697600
H       -2.28615500       1.53892500       0.03294700
H       -2.31366600       1.69930700       1.78046400
H       -2.56554800       0.12721100       1.04274800
H        1.98979200       0.64648200       1.48942800
H        2.55129400      -1.04559100      -1.01675900
H        3.74619500      -0.43075800       0.24837600
