17
Properties=species:S:1:pos:R:3 pbc="F F F"
C        1.28588900      -1.08934000       1.59848700
C        0.72018900      -0.10928200       0.55061100
C       -0.82484000      -0.11728200       0.54968100
C       -1.44376900       1.01835600      -0.28097500
O       -1.18539300       0.86865500      -1.66329700
N        1.23788000      -0.41106100      -0.80612000
H        2.37391700      -1.07275700       1.59399700
H        0.96636200      -2.10879700       1.39175400
H        0.94903800      -0.82866500       2.59930600
H        1.06478700       0.90892600       0.80804900
H       -1.18380500      -1.08236900       0.17818200
H       -1.17671400      -0.03159200       1.58350100
H       -1.05638300       1.99766400       0.08076800
H       -2.53711200       1.03662900      -0.14041800
H       -0.25954100       0.58683100      -1.76966200
H        1.00040000      -1.36745300      -1.06410100
H        2.25221100      -0.32493400      -0.81898800
