13
Properties=species:S:1:pos:R:3 pbc="F F F"
C       -1.59989800       1.27385100       0.91210300
C       -0.08919700       1.14764500       0.74604000
O        0.38965600      -0.17573400       1.05148700
C        0.09757600      -1.16836400       0.08292700
C        0.69570100      -0.87032400      -1.23406400
N        1.15168800      -0.66433400      -2.27017100
H       -1.91164200       2.30446600       0.75623300
H       -1.90726000       0.97558300       1.91192400
H       -2.13678600       0.65295500       0.19712800
H        0.42801000       1.82318800       1.44308700
H        0.21667400       1.42507700      -0.27978900
H       -0.99778000      -1.30081400      -0.04791600
H        0.50463200      -2.12108800       0.45659600
