14
Properties=species:S:1:pos:R:3 pbc="F F F"
N       -2.55148900      -1.30949400      -0.11560300
N       -1.15927900      -1.21607200      -0.17106100
C       -0.60591400      -0.22389400       0.44720400
C        0.89844300      -0.09458100       0.50378000
C        1.37995300       1.28602800       0.14124600
C        2.34657300       1.53926400      -0.74089800
H       -2.92397100      -1.75154300      -0.95610000
H       -3.00827600      -0.41300200       0.07312000
H       -1.20752100       0.55261700       0.96015300
H        1.36510300      -0.84481500      -0.13973300
H        1.23237300      -0.31408600       1.53231900
H        0.89274800       2.11480500       0.65727500
H        2.84775300       0.74064200      -1.27556300
H        2.66283000       2.55344200      -0.95281200
