16
Properties=species:S:1:pos:R:3 pbc="F F F"
C       -1.04718700      -0.19935300       1.43177400
C        0.41333000      -0.12380000       0.95824800
C        0.66637900      -0.90533300      -0.34469600
N        0.12162300      -0.76857500      -1.51187100
N       -0.88030800       0.17583200      -1.71383400
C        0.91851400       1.32856000       0.88848500
H       -1.37293500      -1.23457000       1.50364600
H       -1.72467400       0.31636000       0.75610200
H       -1.14974000       0.25565100       2.41586400
H        1.02049300      -0.62724800       1.72776800
H        1.42176100      -1.70004600      -0.27250200
H       -0.91870400       0.46016400      -2.69342800
H       -0.82159400       0.98343100      -1.09244200
H        0.34055900       1.93516900       0.19405400
H        1.95825300       1.36020000       0.57009500
H        0.85115800       1.79965300       1.86790800
