14
Properties=species:S:1:pos:R:3 pbc="F F F"
O       -0.97907800      -1.86759400       0.50237600
C       -1.35740700      -0.50741700       0.37817800
C       -0.77463100       0.06816600      -0.91054700
C        0.76237500       0.08459500      -0.90185400
C        1.31892100       1.03504500       0.06203300
C        1.78374500       1.82512500       0.84943000
H       -1.29095900      -2.21960700       1.34564700
H       -1.00161000       0.06781400       1.25716400
H       -2.46606100      -0.42074000       0.36770700
H       -1.15880500       1.08164800      -1.06490300
H       -1.11471900      -0.53352800      -1.75911300
H        1.13631400       0.33761200      -1.90301700
H        1.13345700      -0.92047800      -0.66911200
H        2.19699300       2.51493700       1.54317600
