14
Properties=species:S:1:pos:R:3 pbc="F F F"
C       -1.68721200       0.17957300      -1.10132200
C       -0.17167300       0.12911800      -0.86621500
C        0.30968300      -1.16221200      -0.16966700
N        0.70716300      -0.72060400       1.18377500
N        0.83089400       0.67634200       1.20262300
C        0.32040300       1.17844600       0.12157400
H       -2.00127000      -0.61279200      -1.77943800
H       -1.97822500       1.13221900      -1.54050900
H       -2.23258500       0.05891400      -0.16808200
H        0.32466000       0.25814800      -1.84392200
H        1.16355500      -1.61845400      -0.70217200
H       -0.47356100      -1.93519800      -0.11400500
H        1.54187700      -1.17932900       1.56180900
H        0.26194300       2.25677800      -0.02468800
