13
Properties=species:S:1:pos:R:3 pbc="F F F"
C       -2.09680900       0.17802100       0.79582400
C       -0.59296700       0.28684100       0.62742700
O       -0.20783800      -0.39657300      -0.56947400
C        1.09895200      -0.39255700      -0.90350600
C        2.10684800       0.19595400      -0.22972000
H       -2.41684100       0.67361000       1.70973800
H       -2.40847300      -0.86295300       0.84698600
H       -2.61690900       0.64087000      -0.04011900
H       -0.06372900      -0.15945200       1.49065300
H       -0.27756700       1.34531600       0.56394300
H        1.27948100      -0.94544600      -1.83151800
H        1.95585600       0.74696000       0.68705300
H        3.11473200       0.12413500      -0.61109500
