17
Properties=species:S:1:pos:R:3 pbc="F F F"
C        1.65142200      -0.32527100       1.14759500
C        1.02988700       0.65753800       0.13119900
C       -0.51475000       0.66099700       0.18014500
C       -1.18024000      -0.65632200      -0.23871200
O       -2.59308500      -0.56989900      -0.12315500
N        1.50563600       0.40842100      -1.24360400
H        2.73638900      -0.24190000       1.14277900
H        1.39868500      -1.35709000       0.91225900
H        1.30313900      -0.11608900       2.15688900
H        1.36567700       1.67445900       0.40637500
H       -0.83377800       0.91422700       1.19892900
H       -0.88439100       1.46290800      -0.46568800
H       -0.80259900      -1.49876000       0.38010200
H       -0.95448200      -0.89662700      -1.28753600
H       -2.82816600      -0.23567300       0.75204900
H        1.27011400      -0.53578800      -1.54000100
H        2.51672800       0.50891200      -1.28705400
