19
Properties=species:S:1:pos:R:3 pbc="F F F"
C       -1.73175600       0.89152600      -1.44085000
C       -0.22433900       0.86996700      -1.21938300
C        0.25594500      -0.24642900      -0.26183000
C       -0.19194700       0.02699900       1.20321100
N        0.08643900      -1.07509300       2.13062600
C        1.77914700      -0.40779500      -0.35767100
H       -2.00168600       1.66492900      -2.15718200
H       -2.27100100       1.09293000      -0.51754200
H       -2.08379100      -0.06202600      -1.83004900
H        0.10353800       1.84296300      -0.83754500
H        0.27228600       0.74003500      -2.18713300
H       -0.20461800      -1.19409100      -0.58548500
H        0.30511000       0.93253400       1.57755000
H       -1.27201900       0.22653300       1.22261500
H        1.08665900      -1.24600900       2.19524500
H       -0.36359900      -1.93026000       1.81333300
H        2.29021800       0.50046700      -0.04277900
H        2.08394500      -0.62479900      -1.37991300
H        2.12758500      -1.22316500       0.27363700
