17
Properties=species:S:1:pos:R:3 pbc="F F F"
N       -0.74258100       2.39383800       0.17777400
C       -1.29656000       1.11553000      -0.26692900
C       -0.79167100      -0.01674200       0.63579500
O        0.63771700      -0.14151500       0.58341700
C        1.15498400      -0.86565100      -0.53868400
C        1.03234200      -2.37814200      -0.36148200
H       -0.87102600       3.11537100      -0.52680700
H        0.25223600       2.28489600       0.36471200
H       -1.03695700       0.89425000      -1.32401000
H       -2.39743100       1.15205500      -0.22637200
H       -1.27313400      -0.97480700       0.35828000
H       -1.04813400       0.19309800       1.68543500
H        2.21638800      -0.58312700      -0.63074800
H        0.64952500      -0.54489800      -1.47193500
H        1.54131000      -2.70387200       0.54294200
H        1.47759600      -2.89948100      -1.20690800
H       -0.00861000      -2.68819800      -0.28855300
