19
Properties=species:S:1:pos:R:3 pbc="F F F"
C        1.44437700      -1.67046900      -1.07861500
C        0.92388100      -1.87621200       0.30994300
C        0.03536200      -1.14936300       1.00813200
C       -0.72124800       0.08700900       0.65559000
C       -1.24349000       0.39539400      -0.72582900
C       -0.14441700       1.23134700      -0.14843500
C       -0.41365700       2.65913800       0.27539800
H        1.21407300      -2.53709200      -1.70184700
H        2.53216700      -1.57787000      -1.06484000
H        1.03936000      -0.78991800      -1.56536500
H        1.33870300      -2.75173000       0.81142300
H       -0.18420100      -1.50684100       2.01540000
H       -1.39037100       0.40102900       1.45854800
H       -2.23517800       0.83370000      -0.78916800
H       -1.00612800      -0.29206900      -1.53035400
H        0.85084800       1.06904200      -0.56268100
H       -1.41407500       2.76371600       0.68994200
H       -0.32912500       3.34150500      -0.57059700
H        0.29906900       2.98546400       1.03242800
