17
Properties=species:S:1:pos:R:3 pbc="F F F"
C       -1.15261500      -0.83516100      -1.98706700
C        0.05426600      -1.24895000      -1.20462600
C        0.54127200      -0.66679900      -0.10056600
C       -0.03149400       0.54058800       0.63747900
N       -0.23322500       0.23709300       2.07330600
C        0.89122900       1.76039800       0.49783100
H       -0.86229100      -0.47202300      -2.97477900
H       -1.71957100      -0.04939200      -1.49476400
H       -1.81526200      -1.68656600      -2.14653000
H        0.58406000      -2.11543400      -1.60358900
H        1.44057300      -1.09534700       0.34411700
H       -1.01737600       0.79900500       0.21339100
H        0.66009600       0.04207600       2.51981200
H       -0.82436500      -0.58422600       2.17683100
H        1.88080300       1.54791100       0.89881600
H        0.48497000       2.61062400       1.04122200
H        1.00498700       2.04327000      -0.54597900
