15
Properties=species:S:1:pos:R:3 pbc="F F F"
C       -2.52785500       0.45028900      -0.83416500
O       -1.11658200       0.51610100      -0.85062700
C       -0.51682600       0.11920500       0.38187800
C        0.99044600       0.23986100       0.25882000
C        1.83856300      -0.92627700      -0.11943900
N        1.79191200      -0.46090400       1.26665700
H       -2.89736100       0.77428000      -1.81193600
H       -2.95361400       1.10765800      -0.05358700
H       -2.88215600      -0.57887100      -0.63945800
H       -0.81008800      -0.92128000       0.63295200
H       -0.89819000       0.76352200       1.20527300
H        1.35309000       1.23136000      -0.04054400
H        2.76191700      -0.74976400      -0.67462700
H        1.37478800      -1.89712500      -0.30000100
H        2.63492500       0.06926600       1.49777700
