17
Properties=species:S:1:pos:R:3 pbc="F F F"
C       -3.51029100       0.11638600      -0.16151700
C       -2.05435300       0.10273300      -0.14387400
C       -0.84072800       0.07827100      -0.10896700
C        0.60180700       0.07842100      -0.10882600
C        1.28019500      -0.60673200       0.84081600
C        2.76885500      -0.68736300       0.95345700
C        1.27705900       0.87048000      -1.20630500
H       -3.88605600       0.46368500      -1.12590900
H       -3.90172600       0.78037300       0.61229500
H       -3.91105200      -0.88320400       0.01885700
H        0.71358400      -1.15058400       1.59419200
H        3.27121900      -0.12347800       0.17169600
H        3.10749700      -1.72388500       0.89461500
H        3.10682900      -0.30379000       1.91843500
H        0.54307600       1.33831300      -1.85566100
H        1.91117300       0.23231000      -1.82239400
H        1.91019700       1.65709100      -0.79482800
