14
Properties=species:S:1:pos:R:3 pbc="F F F"
C       -1.24130200       1.32533000       1.28762800
C        0.23741700       1.19236500       1.15803400
C        0.87152400       0.33828400       0.32835000
C        0.17856900      -0.60848900      -0.59105800
O       -1.04212600      -0.68033300      -0.66050500
C        1.05776300      -1.50747300      -1.46450100
H       -1.50603200       2.08218400       2.02278000
H       -1.69309700       0.37817100       1.58349900
H       -1.69352700       1.59324600       0.33239100
H        0.84685700       1.84186100       1.78869000
H        1.96088900       0.33182400       0.32182600
H        2.11838400      -1.33659500      -1.29857600
H        0.83981300      -1.33392300      -2.51667200
H        0.83990300      -2.55420500      -1.26060900
