17
Properties=species:S:1:pos:R:3 pbc="F F F"
C       -2.13567200       1.87639300       0.04147600
C       -1.68209900       0.68744300      -0.35639000
C       -1.05310900      -0.33199800       0.55874500
C        0.33490900      -0.75272900       0.10184700
C        0.59408600      -2.03318300      -0.22332200
C        1.34517700       0.32152400       0.04839900
C        2.65352800       0.16351400      -0.19183300
H       -2.59207400       2.56599800      -0.65815700
H       -2.06607800       2.19179700       1.07632800
H       -1.76671600       0.40380200      -1.40539200
H       -1.69965900      -1.21686500       0.60852200
H       -0.99509800       0.07797200       1.57417600
H       -0.17856600      -2.79080300      -0.17181200
H        1.57857500      -2.34764300      -0.54789000
H        0.96625900       1.32644700       0.23423600
H        3.09000600      -0.81171100      -0.37501100
H        3.32242900       1.01522300      -0.20853300
