19
Properties=species:S:1:pos:R:3 pbc="F F F"
C       -1.46400500       1.47565500      -0.20008700
C        0.03757600       1.72851300      -0.23129800
C        0.90422100       0.57801700      -0.74808300
C        0.35306100      -0.68115200      -1.34739300
C        1.06215700      -0.74466000      -0.02767300
C        0.36520100      -1.05719400       1.25440700
C       -0.82100800      -1.65685100       1.37806900
H       -1.98344200       2.35650600       0.17226900
H       -1.71410800       0.63961600       0.44764300
H       -1.84775800       1.25987800      -1.19496200
H        0.37617900       2.01079400       0.77367800
H        0.23006400       2.60397700      -0.86315600
H        1.83054800       0.93240100      -1.20746500
H        0.85645100      -1.09577500      -2.21614800
H       -0.72299100      -0.81615300      -1.34846600
H        2.08253400      -1.13914400      -0.05663400
H        0.91525700      -0.78895500       2.15912900
H       -1.39965000      -1.95862000       0.51298300
H       -1.24630100      -1.85848700       2.35347700
