19
Properties=species:S:1:pos:R:3 pbc="F F F"
C       -0.17537100      -1.78190500      -1.85393700
C       -0.68750300      -0.37085500      -1.57237300
C       -0.22451700       0.17475300      -0.22984600
C       -1.13783900       0.51219500       0.70881100
C       -0.87217600       1.14193700       2.03965400
C        1.23456800       0.34686700      -0.09322900
C        1.95803400       0.20923500       1.02594300
H       -0.50104900      -2.12087800      -2.83556100
H       -0.54760400      -2.48642600      -1.11348400
H        0.91187800      -1.81492200      -1.82845200
H       -1.78122600      -0.36361600      -1.61735200
H       -0.33683300       0.29738900      -2.37017600
H       -2.18906000       0.34223600       0.47335500
H        0.06449800       1.69621800       2.04795400
H       -0.81807400       0.39271400       2.83393000
H       -1.67994700       1.82428600       2.30340600
H        1.76139300       0.56845800      -1.02401700
H        1.51201400      -0.07473800       1.97050200
H        3.03283300       0.34591200       1.00975300
