19
Properties=species:S:1:pos:R:3 pbc="F F F"
C       -1.50556100      -0.12519100       1.78172300
C       -1.24914700      -0.51070800       0.35074900
C       -1.67603200      -1.67859300      -0.14931300
C       -0.50277400       0.49328200      -0.50600700
C        0.93911700       0.72175900      -0.05424800
C        2.03497900      -0.17664700      -0.53819200
C        1.95394600       1.23468000      -1.03036900
H       -2.07870100      -0.88818500       2.30232100
H       -2.05518600       0.81545200       1.83722900
H       -0.56855000       0.02339700       2.32000000
H       -2.21626800      -2.38863600       0.46471500
H       -1.48980300      -1.94934900      -1.18133100
H       -1.03980100       1.45196200      -0.47687600
H       -0.50643800       0.16110700      -1.54806500
H        1.03864900       1.08545400       0.97003700
H        1.77511300      -0.96767900      -1.23380800
H        2.83458800      -0.42894300       0.15111200
H        1.64232500       1.39289500      -2.05794000
H        2.69690300       1.94102800      -0.67344900
