17
Properties=species:S:1:pos:R:3 pbc="F F F"
C       -2.55267900      -0.54528300       0.45944000
N       -1.09546600      -0.54301800       0.54901100
C       -0.45466900       0.34808000      -0.43173200
C        1.05610700       0.28002400      -0.33955800
C        1.81485100       0.08853300      -1.42752600
C        1.65855200       0.46917000       1.02467600
H       -2.96355600      -1.24215000       1.19360600
H       -2.92756100      -0.83942800      -0.53797000
H       -2.94474500       0.45259900       0.67567700
H       -0.73934000      -1.49457400       0.43132400
H       -0.78529600       1.38154200      -0.22839000
H       -0.77927200       0.12124900      -1.46895500
H        1.36902800      -0.04718200      -2.40571300
H        2.89575600       0.06452400      -1.36303800
H        1.28211400      -0.28197100       1.71929700
H        1.38497000       1.44247400       1.43405900
H        2.74319400       0.40089900       0.99522500
