19
Properties=species:S:1:pos:R:3 pbc="F F F"
C        0.25803500       1.06529500       1.72236500
C       -0.24144100      -0.28933000       1.19887100
N        0.22531400      -0.65773400      -0.15616200
C       -0.21897400       0.24065100      -1.24102900
C       -1.73641900       0.33284100      -1.35899200
C        1.66528900      -0.91997600      -0.21611400
H       -0.11553800       1.24327800       2.72868500
H       -0.08140900       1.88268200       1.08989800
H        1.34485600       1.09822500       1.75820600
H       -1.34098000      -0.29725700       1.20600100
H        0.08038900      -1.08281800       1.88992300
H        0.19075000      -0.15543400      -2.18304900
H        0.20608300       1.26228400      -1.13377100
H       -2.18655100      -0.65579200      -1.42270800
H       -2.01108800       0.88548200      -2.25539800
H       -2.17791600       0.84713400      -0.50764100
H        1.94601400      -1.63106300       0.56559200
H        2.28666300      -0.01395100      -0.08626000
H        1.92258900      -1.35552000      -1.18694000
