17
Properties=species:S:1:pos:R:3 pbc="F F F"
C        0.25434300      -2.51990400      -0.37001800
C       -0.62175300      -1.28797100      -0.17998400
N        0.17067700      -0.14138500       0.30073700
C        0.84206500       0.65899100      -0.72801700
C       -0.35742700       1.19177900      -0.01148200
C       -0.23824400       2.26420900       1.05090100
H       -0.33825800      -3.36857300      -0.70604200
H        0.74489600      -2.79692500       0.56053100
H        1.02932600      -2.33512900      -1.11161200
H       -1.40632300      -1.50244200       0.56234900
H       -1.14425200      -1.05130400      -1.12954100
H        0.72758500       0.34163500      -1.76772500
H        1.83830500       1.01901300      -0.46479800
H       -1.29176500       1.21574600      -0.59072600
H        0.69656500       2.16713200       1.59750200
H       -1.05564400       2.19821900       1.76870800
H       -0.26909000       3.25970100       0.60778600
