17
Properties=species:S:1:pos:R:3 pbc="F F F"
C       -1.82400000       0.32526700      -0.43997300
C       -0.30567800       0.30620100      -0.21091400
N        0.05502800      -0.50233100       0.97321600
C       -0.18647300       0.15573500       2.25276500
C        0.43656900      -0.26953700      -1.43391400
O        1.84483000      -0.22712700      -1.24036200
H       -2.34268600       0.74483700       0.41896100
H       -2.20665900      -0.68041200      -0.60165900
H       -2.07555800       0.92738400      -1.31141800
H        0.03434400       1.36379200      -0.07359000
H        1.04145000      -0.76626600       0.89427500
H       -1.25673200       0.32484000       2.40285400
H        0.31885700       1.13591400       2.34052000
H        0.17190900      -0.48254100       3.06330700
H        0.16218900       0.29593600      -2.34866500
H        0.16258800      -1.32054200      -1.60006000
H        2.12395500       0.68439700      -1.08192500
