13
Properties=species:S:1:pos:R:3 pbc="F F F"
N       -0.79768600      -0.52412600       1.36811100
C       -1.67365200      -0.14181200       0.27134600
C       -0.96187000       0.37625100      -0.94619100
C        0.36161100       0.46690100      -1.17641500
C        1.42745300       0.08005400      -0.30389100
C        2.43470700      -0.18964200       0.31838100
H       -1.33729600      -0.86726100       2.15787100
H       -0.22671000       0.25984500       1.67215100
H       -2.42360200       0.62658600       0.57717300
H       -2.27805700      -1.01832100      -0.02221300
H       -1.62712500       0.71889600      -1.73963300
H        0.69400400       0.87494300      -2.13384700
H        3.25310500      -0.47631700       0.93234600
