17
Properties=species:S:1:pos:R:3 pbc="F F F"
C       -1.85229300      -0.02457100       1.48197100
C       -0.35378000       0.20129500       1.33039000
C        0.09508500       0.51267000      -0.13270700
C       -0.08601700      -0.68538200      -1.04092500
C        0.82215400      -1.14785700      -1.89993000
N        1.47790800       1.01779000      -0.17496000
H       -2.11376100      -0.18313800       2.52637100
H       -2.18374300      -0.89661800       0.92205800
H       -2.41612900       0.83509800       1.12376600
H        0.19053900      -0.67229200       1.70252300
H       -0.05401000       1.04199400       1.96602300
H       -0.56282300       1.32134100      -0.51166800
H       -1.05528200      -1.18070100      -0.97702300
H        1.79200700      -0.67729000      -2.00484400
H        0.61102200      -2.00327800      -2.53063700
H        2.12541300       0.30991800       0.16378700
H        1.57051300       1.84350900       0.41157300
