12
Properties=species:S:1:pos:R:3 pbc="F F F"
C       -1.67168900       0.66694700      -0.28569000
O       -0.26183100       0.61370300      -0.26320700
C        0.24921600      -0.60774500       0.26022400
C        1.76600500      -0.56976100       0.24439200
H       -1.97195100       1.63419800      -0.70009500
H       -2.09755700       0.56434900       0.73003600
H       -2.09796800      -0.13918000      -0.91182800
H       -0.12916600      -1.46420700      -0.34074000
H       -0.12964500      -0.76358600       1.29463900
H        2.14077400      -0.43735300      -0.76831600
H        2.17870200      -1.49537300       0.64114400
H        2.14027000       0.25488400       0.84726600
