23
Properties=species:S:1:pos:R:3 pbc="F F F"
C       -1.77040800      -1.22416700       2.30581200
C       -2.13073500      -1.17754800       0.82554700
C       -1.54164500       0.02734900       0.07855700
C       -0.01080600       0.01294200      -0.00841800
C        0.53270300       1.17019700      -0.85496000
C        2.06535900       1.25529400      -0.87617800
C        2.74124500       0.07163200      -1.55834600
H       -2.26521700      -2.06051000       2.79555500
H       -2.07619200      -0.31072100       2.81208800
H       -0.69846200      -1.34153900       2.44935300
H       -3.22149200      -1.15201100       0.72503900
H       -1.80005400      -2.10332900       0.34224900
H       -1.87047900       0.95306100       0.56354600
H       -1.95836200       0.04946400      -0.93494200
H        0.31983200      -0.94117400      -0.43175400
H        0.41674900       0.06732500       0.99811400
H        0.13436000       2.11533800      -0.46848800
H        0.15860200       1.07849500      -1.88059300
H        2.43977600       1.34530500       0.14934400
H        2.35719000       2.17739000      -1.39103900
H        2.55127700      -0.85595700      -1.02267200
H        3.81888000       0.21665000      -1.60076100
H        2.37930500      -0.05198000      -2.57712200
