16
Properties=species:S:1:pos:R:3 pbc="F F F"
C       -2.18697600      -1.15821900      -0.47004200
C       -1.35778700      -0.31460900       0.14548400
C       -0.57543800       0.76263000      -0.55282600
C        0.92690300       0.75010700      -0.26969700
C        1.47971000       0.51307200       1.10283500
C        1.66069700      -0.51938900       0.03442300
H       -2.74344300      -1.90496200       0.08319100
H       -2.33234200      -1.12696200      -1.54380300
H       -1.23972500      -0.37699600       1.22776100
H       -0.97895400       1.74134500      -0.25121400
H       -0.73747400       0.69051500      -1.63456100
H        1.47554300       1.47819400      -0.87101400
H        0.78974300       0.29236100       1.91063700
H        2.34935800       1.08807400       1.40516900
H        1.08037800      -1.43242300       0.11542400
H        2.65425400      -0.65069500      -0.38265400
