19
Properties=species:S:1:pos:R:3 pbc="F F F"
C       -2.43615500       1.33907700       1.03512000
C       -0.94983400       1.05586400       0.99265300
C       -0.09576900       1.64775800      -0.09255400
C       -0.36955400       0.17146900      -0.07568700
C        0.74623600      -0.81367900       0.26507500
C        1.59387700      -1.16135100      -0.92949600
C        1.85220200      -2.40463800      -1.33594900
H       -2.64102700       2.28462500       1.53680000
H       -2.96958500       0.55789800       1.57637100
H       -2.85312100       1.39572900       0.03207600
H       -0.47849100       0.98690000       1.97487000
H        0.90130200       1.98499000       0.17359700
H       -0.58391600       2.24561000      -0.85559500
H       -1.06812500      -0.18589100      -0.83359100
H        1.38587600      -0.36869900       1.03944300
H        0.32203500      -1.72769100       0.69692400
H        2.01500600      -0.31924100      -1.47958400
H        1.44738500      -3.26553600      -0.81614000
H        2.47664800      -2.59570000      -2.20014600
