18
Properties=species:S:1:pos:R:3 pbc="F F F"
C       -1.08395500      -0.23459700      -1.93267100
C       -0.97452800       1.14020700      -1.35068600
C       -1.48100700       0.01105900      -0.50819200
C       -0.68624400      -0.54221700       0.67266300
C        0.82759600      -0.50499100       0.51395900
C        1.72213600      -0.52886400       1.70658700
N        1.53345600       0.70540700       0.94360600
H       -0.16475000      -0.77626000      -2.13166900
H       -1.87361400      -0.41943100      -2.65431400
H       -1.68666100       1.88976400      -1.68184500
H        0.01882100       1.52245100      -1.14412500
H       -2.55790700       0.01259600      -0.32503300
H       -1.00129800      -1.58039300       0.85313500
H       -0.95905300       0.01608000       1.57503400
H        1.21706300      -0.98688500      -0.39257500
H        2.69437000      -1.02054300       1.63078800
H        1.29201600      -0.52506700       2.70919900
H        2.34283600       0.88626400       0.34620700
