21
Properties=species:S:1:pos:R:3 pbc="F F F"
C       -1.27504200      -2.20526200       0.14647900
C       -1.50774100      -0.71718700      -0.08670200
C       -0.80539400      -0.17207300      -1.33850300
C        0.72755300      -0.11635200      -1.25600400
C        1.28439400       1.02036000      -0.38138300
C        1.12378000       0.81025000       1.09906800
C        0.73974000       1.75634300       1.95781300
H       -1.81489300      -2.54565400       1.02768400
H       -0.21995200      -2.42363900       0.29793300
H       -1.61706600      -2.79269900      -0.70354700
H       -1.18373800      -0.15374800       0.79289800
H       -2.58399500      -0.53877800      -0.18789200
H       -1.18652600       0.83332100      -1.54910000
H       -1.08558100      -0.79107500      -2.19843700
H        1.11953500       0.01703100      -2.27084100
H        1.11926200      -1.07542000      -0.90149500
H        0.83605100       1.97488100      -0.67513900
H        2.35972000       1.10912800      -0.59413800
H        1.38480100      -0.17965600       1.47555400
H        0.47521600       2.75216200       1.62152700
H        0.67342400       1.55767800       3.02038400
