16
Properties=species:S:1:pos:R:3 pbc="F F F"
C       -2.42128200      -0.30911000      -0.95685500
C       -1.39582900       0.37433600      -0.44884300
C       -0.52461900      -0.11983900       0.67804400
C        0.95680800      -0.10377400       0.34220600
C        1.66775100      -1.23758800       0.27833600
C        1.58763500       1.24148600       0.11101700
H       -3.02433000       0.09777500      -1.75940400
H       -2.68480400      -1.29328000      -0.58698900
H       -1.15712800       1.36014100      -0.84925500
H       -0.82965000      -1.12887100       0.96804800
H       -0.68942400       0.52850200       1.55240100
H        1.20387800      -2.20189100       0.44554900
H        2.72662200      -1.22366800       0.05079200
H        1.44050200       1.89252400       0.97377700
H        1.13626200       1.74343000      -0.74575400
H        2.65529000       1.15226600      -0.07259100
