16
Properties=species:S:1:pos:R:3 pbc="F F F"
C       -2.82142700       0.06471600       0.68425900
C       -1.30217200      -0.03387100       0.64534300
C       -0.73799000       0.16267600      -0.76441600
C        0.76473100       0.08907800      -0.83695500
N        1.49090800      -0.10416300       0.21615800
N        2.87873500      -0.09609800       0.04622300
H       -3.19479000      -0.08164100       1.69565000
H       -3.28132900      -0.68757500       0.04594700
H       -3.16020200       1.04045400       0.34102500
H       -0.98706900      -1.00938000       1.02863900
H       -0.86806200       0.71337200       1.31652000
H       -1.07003000       1.13179700      -1.16366300
H       -1.16959600      -0.58600600      -1.44423000
H        1.22322700       0.20932500      -1.83963100
H        3.33408500      -0.70690600       0.72456900
H        3.16742000      -0.31720500      -0.91087600
