11
Properties=species:S:1:pos:R:3 pbc="F F F"
O       -2.45152200       0.19917400      -0.67799400
C       -1.08929500      -0.14882100      -0.55187400
C       -0.46658000       0.65114900       0.55642600
C        0.82386200       0.56531500       0.92571400
C        1.76524700      -0.31377900       0.29107000
N        2.53202500      -1.01651500      -0.21140600
H       -2.86308900      -0.30945500      -1.38824600
H       -0.55405200       0.03241200      -1.50971800
H       -0.98653000      -1.23756800      -0.34908900
H       -1.12305300       1.34032200       1.08318200
H        1.21531400       1.17331500       1.73965400
