12
Properties=species:S:1:pos:R:3 pbc="F F F"
O       -1.70637400      -0.05100800      -0.50685700
C       -0.29495600      -0.02192000      -0.63948100
C        0.45573200       1.05487100       0.17790200
N        1.30640900      -0.00561300       0.76521100
C        0.44457600      -1.07043900       0.20093000
H       -2.09705900       0.71795700      -0.94250000
H       -0.01591000      -0.02967000      -1.71746200
H       -0.17656400       1.57003400       0.91694900
H        1.01814000       1.81802000      -0.38510300
H        1.34299500       0.00664300       1.78678100
H       -0.19585200      -1.55949400       0.94845300
H        0.99825700      -1.85119900      -0.34483500
