12
Properties=species:S:1:pos:R:3 pbc="F F F"
C        0.87120200       0.79751600      -0.72726000
C        1.55759000      -0.56032300      -0.64750500
O        0.30790000      -1.22334800      -0.37086100
C       -0.42765100       0.02593700      -0.44239400
C       -1.14903300       0.35466100       0.79559600
C       -1.75466600       0.66322800       1.79488200
H        0.91110400       1.29301800      -1.70097000
H        1.16535700       1.51633900       0.04035900
H        2.28290500      -0.69055000       0.17534800
H        2.02007000      -0.92785700      -1.58194000
H       -1.14577600       0.00995700      -1.29275100
H       -2.28150800       0.89976600       2.68693400
