16
Properties=species:S:1:pos:R:3 pbc="F F F"
C       -0.93662000       1.44299900       1.91253300
C       -1.29109200       0.06289700       1.37178100
C       -0.76791400      -0.20453500      -0.04547000
C        0.76477000      -0.29142000      -0.12166900
C        1.23962700      -0.59485400      -1.47217700
C        1.62969600      -0.84721900      -2.58742300
H       -1.37455500       1.59201800       2.89696100
H       -1.30944000       2.22726400       1.25702100
H        0.13990300       1.56975700       2.00568200
H       -2.38059000      -0.04764100       1.36574900
H       -0.90893300      -0.70477800       2.05348100
H       -1.11954600       0.57964500      -0.72286400
H       -1.19502500      -1.14393900      -0.41038800
H        1.12938000      -1.06494000       0.56738400
H        1.21375500       0.65399100       0.20873200
H        1.97424700      -1.06858000      -3.56720800
