15
Properties=species:S:1:pos:R:3 pbc="F F F"
C       -2.48667100      -0.86711600       1.12277500
C       -0.96402300      -0.91868400       1.14008800
C       -0.33319300      -0.07213200       0.03169400
C        1.17716500      -0.11356200       0.03553900
N        1.93309300       0.58544200      -0.75354900
O        1.21990100       1.39461000      -1.62123400
H       -2.90511400      -1.46752900       1.92773700
H       -2.88045500      -1.24653100       0.18188400
H       -2.84429300       0.15339100       1.24430000
H       -0.63355800      -1.95847300       1.04026300
H       -0.59956700      -0.57619600       2.11475600
H       -0.66078200       0.97086300       0.12044000
H       -0.69753900      -0.40618800      -0.94826900
H        1.69411400      -0.77219700       0.74204100
H        1.87665500       1.87683900      -2.15900500
