16
Properties=species:S:1:pos:R:3 pbc="F F F"
C       -1.06178900       1.48329300      -1.36310600
C        0.38313300       1.20391800      -1.10278000
C        0.89375800       0.27957300      -0.26797000
C        0.16042800      -0.69374100       0.56590700
C       -0.98725200      -1.28725100       0.18666200
C        0.81134600      -1.03806900       1.88115200
H       -1.21985500       2.55063700      -1.51543700
H       -1.69325200       1.15193600      -0.54151100
H       -1.40507800       0.97872200      -2.26957600
H        1.08677900       1.84497900      -1.63494700
H        1.97815400       0.25896200      -0.14840500
H       -1.43548800      -1.09725100      -0.77900800
H       -1.47464700      -2.01017600       0.82934300
H        0.91836600      -0.15160200       2.50720100
H        1.81414100      -1.43660000       1.72182200
H        0.23313600      -1.77595200       2.43133100
