17
Properties=species:S:1:pos:R:3 pbc="F F F"
C       -1.89242600      -0.06592500      -0.12554700
C       -0.50232400      -0.00480800       0.45064300
C       -0.25336200       0.70592700       1.56606700
C        1.05460500       0.87503700       2.27521300
C        0.54616900      -0.82030800      -0.29109500
C        0.58721900      -0.54221800      -1.72882900
C        0.64382900      -0.32738500      -2.91650500
H       -2.59744500       0.50562600       0.47379800
H       -2.24643700      -1.09683500      -0.18043400
H       -1.90736200       0.32731100      -1.14261000
H       -1.09223100       1.22904000       2.02583300
H        1.88773400       0.42256400       1.74360700
H        1.01252800       0.43036400       3.27181100
H        1.27853500       1.93366000       2.41367100
H        0.32971800      -1.89180700      -0.15436400
H        1.54490600      -0.65346600       0.12784600
H        0.68779700      -0.12837700      -3.95885000
