17
Properties=species:S:1:pos:R:3 pbc="F F F"
C       -3.44547600      -0.26422600       0.78278100
C       -1.99002700      -0.24671600       0.73519100
C       -0.77774200      -0.21976700       0.65398600
C        0.65440800      -0.22314800       0.66490800
C        1.43867500       0.12821700      -0.38032000
C        0.87749800       0.57222800      -1.70141900
C        2.93729300       0.09093300      -0.26950800
H       -3.86231700       0.63433500       0.32262800
H       -3.80145000      -0.31247800       1.81379100
H       -3.84289800      -1.13024600       0.24841300
H        1.11938300      -0.53771100       1.60103100
H       -0.20891100       0.56862000      -1.69035700
H        1.21725800      -0.08121800      -2.50715700
H        1.21745200       1.57956400      -1.94907900
H        3.25892800      -0.24057700       0.71523700
H        3.36745000       1.07691700      -0.45484900
H        3.36732600      -0.58233200      -1.01337400
