17
Properties=species:S:1:pos:R:3 pbc="F F F"
C       -2.75100600      -0.54327500      -1.18177600
C       -1.42163500      -0.33987200      -1.21909300
C       -0.62123100      -0.09453800      -0.03351300
C        0.72612600       0.11368000       0.01098800
C        1.43493800       0.34967500       1.27828700
C        0.90117700       0.39740200       2.50919200
C        1.60832700       0.11705800      -1.20990400
H       -3.31672800      -0.72456900      -2.08676100
H       -3.29651000      -0.53224900      -0.24524000
H       -0.91778500      -0.36104200      -2.18476400
H       -1.17130300      -0.08132400       0.90698800
H        2.51076300       0.50096100       1.18293900
H       -0.15880000       0.25826700       2.68750700
H        1.52536200       0.58080900       3.37481100
H        1.05135500      -0.00587700      -2.13379900
H        2.34468400      -0.68645000      -1.15170600
H        2.16878500       1.05070000      -1.27505700
