21
Properties=species:S:1:pos:R:3 pbc="F F F"
C       -1.87531300       1.12422300      -0.48863500
C       -2.00952300       0.53173300       0.90808600
C       -1.36601100      -0.85340400       1.06987100
C        0.17222300      -0.85681400       1.09803700
C        0.82754400      -0.63132300      -0.23914900
C        1.90797000       0.13810400      -0.42556300
C        2.59423500       0.32079000      -1.74327500
H       -2.37276000       2.09064100      -0.54465800
H       -2.32668100       0.47173800      -1.23357600
H       -0.83160900       1.26631600      -0.75700100
H       -3.07365900       0.44976100       1.15769700
H       -1.57692000       1.22148300       1.64079300
H       -1.71676900      -1.51671300       0.27204600
H       -1.72333200      -1.28856600       2.01038700
H        0.49321700      -1.83929600       1.47575600
H        0.53594200      -0.12133700       1.82355000
H        0.40567200      -1.17408900      -1.08563400
H        2.33448000       0.67843500       0.41979300
H        2.09430500      -0.23406400      -2.53391100
H        3.63077900      -0.01818400      -1.69293200
H        2.62058400       1.37401600      -2.02854100
