17
Properties=species:S:1:pos:R:3 pbc="F F F"
C       -0.35068100       1.09261600       2.09182800
C       -0.37820300      -0.10681700       1.15341700
C        0.17472200       0.21538500      -0.27307200
C       -0.06680700      -0.96228800      -1.19830100
C       -1.08458300      -1.05065200      -2.05381400
N        1.61254600       0.54901600      -0.25546400
H       -0.75178200       0.82709600       3.06783700
H       -0.94766900       1.91236500       1.69634500
H        0.66341800       1.46015200       2.23954900
H       -1.40696000      -0.46780100       1.06060400
H        0.20120900      -0.92810300       1.58801600
H       -0.37167400       1.09442700      -0.65874200
H        0.64198900      -1.78792400      -1.12297100
H       -1.80714200      -0.24903000      -2.16038800
H       -1.22119600      -1.92453400      -2.67966300
H        2.15819600      -0.24470800       0.07218300
H        1.78710200       1.33548500       0.36512100
