15
Properties=species:S:1:pos:R:3 pbc="F F F"
N       -1.34076400       1.95081700      -0.42341000
C       -1.47628600       0.51524100      -0.67811400
C       -0.77788200      -0.32586700       0.40014100
C        0.73638100      -0.16287800       0.40520600
C        1.61943400      -1.03077200      -0.40287700
O        1.48937300      -1.22026100       1.00122900
H       -1.85354700       2.48768700      -1.11777000
H       -0.36607000       2.23865000      -0.44822600
H       -1.08274500       0.23279700      -1.67888600
H       -2.54697000       0.26808400      -0.68991500
H       -1.02107700      -1.38137700       0.24495800
H       -1.17384500      -0.05202400       1.38376300
H        1.10866400       0.84222400       0.66721600
H        2.60276300      -0.67134200      -0.73362100
H        1.19331500      -1.83267100      -1.01961400
