15
Properties=species:S:1:pos:R:3 pbc="F F F"
O       -0.22001700      -0.48744300      -1.91086200
C       -0.52603700      -0.96947700      -0.61739400
C       -0.01164300      -0.00324300       0.45557600
N       -0.26779800      -0.43906600       1.82945100
C        1.26127800       0.75610700       0.21006100
C       -0.05455600       1.47536600       0.19231400
H       -0.55601300      -1.10046600      -2.57662700
H       -0.07832100      -1.97894500      -0.46924000
H       -1.62636800      -1.10847100      -0.51268300
H        0.17775000      -1.33462000       2.02011700
H       -1.26615700      -0.53273000       2.00611200
H        1.76025000       0.60843000      -0.74132200
H        1.91730400       0.93052400       1.05630700
H       -0.42821900       1.80438100      -0.77108700
H       -0.27975700       2.13238400       1.02581400
