17
Properties=species:S:1:pos:R:3 pbc="F F F"
C       -2.01502700      -0.39756600       0.60247000
C       -0.70682800      -0.38391900       0.32202700
C        0.13741800      -1.60537800       0.02747700
C        1.50154600      -1.03529600      -0.24041700
C        1.52422900       0.29616400      -0.12315700
C        0.17300200       0.86136300       0.25916600
C       -0.33996300       1.94171900      -0.70409400
H       -2.57425000      -1.32468400       0.63636200
H       -2.55774200       0.51854200       0.80209300
H       -0.24714800      -2.17631000      -0.82950200
H        0.14665100      -2.30985300       0.87154000
H        2.35684300      -1.65366400      -0.49655300
H        2.40109200       0.91898700      -0.27501000
H        0.23579800       1.31875600       1.26520600
H       -0.40684300       1.56097300      -1.72058400
H        0.32846300       2.80090000      -0.70853600
H       -1.32913300       2.28383400      -0.40584200
