14
Properties=species:S:1:pos:R:3 pbc="F F F"
O       -0.31907900      -0.09142500      -1.97342900
C       -0.48485100      -0.33462800      -0.58337900
C        0.44003100      -1.38431700       0.04958000
O        0.96893000      -0.39581900       0.96137900
C        0.22247900       0.68654300       0.31934400
C       -0.60958100       1.49401900       1.30462000
H       -0.68673500      -0.82169400      -2.48879200
H       -1.56353000      -0.48478800      -0.35239100
H        1.22546700      -1.78922800      -0.61340800
H       -0.04064600      -2.22492100       0.58318700
H        0.91772700       1.34451400      -0.23882100
H       -1.28249200       0.85307000       1.87175800
H       -1.21014800       2.23701400       0.78190000
H        0.03308800       2.01428300       2.01198300
