21
Properties=species:S:1:pos:R:3 pbc="F F F"
C       -1.66518300       1.22390600       0.36806700
C       -0.19096600       0.83884900       0.56126200
C        0.35699100       0.11540300      -0.67593000
C        1.51991600      -0.82732100      -0.55906300
C        0.15905700      -1.35757200      -0.91366400
C       -0.59858200      -2.24937000       0.04723500
C        0.65972300       2.07632800       0.88513200
H       -2.05782500       1.71596600       1.25584000
H       -2.27436400       0.34408500       0.17236400
H       -1.78410600       1.90684100      -0.47102800
H       -0.12711700       0.15361200       1.42066100
H        0.34877100       0.73159500      -1.57786600
H        1.89671700      -1.03915500       0.43658400
H        2.28274400      -0.80544900      -1.33174300
H        0.02933500      -1.64092800      -1.96050600
H       -0.37923100      -2.00061800       1.08280500
H       -0.33104900      -3.29464500      -0.10662000
H       -1.67533700      -2.16232200      -0.09906300
H        0.63796300       2.79145300       0.06496300
H        1.69725700       1.79873900       1.05863200
H        0.29050600       2.57948800       1.77674000
