14
Properties=species:S:1:pos:R:3 pbc="F F F"
O       -2.57283200      -0.56118200       1.23730000
C       -1.67515900       0.20422000       1.00364000
C       -0.98204200       0.31551200      -0.35861600
C        0.50776100       0.48611000      -0.23999900
C        1.40108900      -0.32415000      -0.82228300
C        2.88241800      -0.15934500      -0.70810100
H       -1.29451300       0.92406700       1.79483000
H       -1.41271900       1.19745000      -0.85749300
H       -1.23319600      -0.55128600      -0.97440300
H        0.85196800       1.32412000       0.36693400
H        1.04961200      -1.16333100      -1.42250600
H        3.14311700       0.69718000      -0.09082300
H        3.33547300      -0.02373200      -1.69155600
H        3.33850900      -1.04908700      -0.27122600
