17
Properties=species:S:1:pos:R:3 pbc="F F F"
C       -3.43603200       0.39840300      -1.06435700
C       -1.91353700       0.40201000      -1.07458900
C       -1.32365000      -0.01278300       0.28333200
C        0.14108000      -0.02214200       0.29563100
C        1.35429100      -0.05725300       0.34786600
C        2.78692700      -0.05081600       0.34602400
C        3.55011100      -0.73913300       1.20706100
H       -3.83047200       0.69336800      -2.03415000
H       -3.82550900       1.09024400      -0.31990200
H       -3.82461900      -0.59127900      -0.83184100
H       -1.54932800       1.39923700      -1.33941700
H       -1.54926200      -0.27713400      -1.85125000
H       -1.69260100      -1.01088700       0.55748800
H       -1.68375300       0.67043300       1.06533500
H        3.25526200       0.56786300      -0.42319800
H        3.11479300      -1.35964300       1.98015600
H        4.63035200      -0.69192400       1.15096700
