14
Properties=species:S:1:pos:R:3 pbc="F F F"
C       -2.02850200      -0.00335400      -0.00294300
C       -0.52428100       0.05392000       0.07496300
C        0.11735600       0.75122400       1.03896600
C        1.60065900       0.85534800       1.18181500
C        0.18885500      -0.67999100      -0.94087900
C        0.73368800      -1.31456900      -1.81880600
H       -2.48396500       0.57469200       0.79808800
H       -2.38399300      -1.03174300       0.07018400
H       -2.38496300       0.38938900      -0.95584300
H       -0.48122700       1.28424100       1.77689000
H        2.11589800       0.29570900       0.40574600
H        1.92504900       0.47615000       2.15308900
H        1.92407200       1.89692100       1.12799900
H        1.24247800      -1.86082800      -2.57484300
