13
Properties=species:S:1:pos:R:3 pbc="F F F"
C       -3.00920000       0.01152400      -0.00209300
C       -1.79724500      -0.02287700      -0.00118800
C       -0.36402600      -0.03469000      -0.00018200
C        0.44338600      -1.13111700       0.00209800
C        1.87493500      -0.69313400       0.00243900
C        1.77301700       0.80253400      -0.00013200
C        0.47502900       1.17149100      -0.00155800
H       -4.07156400       0.02613800      -0.00280600
H        0.12176700      -2.16628800       0.00348100
H        2.42509700      -1.07009400      -0.87051200
H        2.42363000      -1.06705800       0.87762200
H        2.62953900       1.46749500      -0.00066800
H        0.09616000       2.18742600      -0.00341900
