21
Properties=species:S:1:pos:R:3 pbc="F F F"
C       -2.55599500      -0.74654300      -0.62861900
C       -1.05914400      -0.68389400      -0.57773000
C       -0.31905100       0.30573700      -0.04421000
C        1.21298900       0.27036000      -0.01758500
C        1.72779600       0.12960200       1.42764700
C        1.84209200      -0.80061900      -0.91519200
C       -0.93127000       1.52796000       0.59834500
H       -2.89307200      -1.07595800      -1.61193600
H       -3.02214700       0.21151100      -0.41254300
H       -2.93913100      -1.47037300       0.09472400
H       -0.55245900      -1.54618400      -1.00700500
H        1.55871800       1.25216900      -0.38767000
H        1.42253300      -0.82104500       1.85946300
H        1.34183700       0.92614000       2.05995300
H        2.81494300       0.17515400       1.45303100
H        1.61013100      -1.80478300      -0.56609900
H        2.92539700      -0.69559800      -0.91725400
H        1.49500600      -0.70931500      -1.94219200
H       -1.86054900       1.82115000       0.11415200
H       -0.24714800       2.37397700       0.55641400
H       -1.15855400       1.34753600       1.65102700
