19
Properties=species:S:1:pos:R:3 pbc="F F F"
C       -1.24224100       0.33432000       2.61742900
C       -1.64717100       1.11049100       1.40369400
C       -1.32636100       0.84375300       0.13042900
C       -0.49711900      -0.31257300      -0.36969100
C        0.40152800       0.07743400      -1.51666500
C        1.64143500      -0.37213200      -1.75304000
C        2.41900300      -1.34823500      -0.92698700
H       -0.79863500       0.99451600       3.36372200
H       -0.52627900      -0.45098600       2.38842200
H       -2.11263300      -0.13056000       3.08481000
H       -2.27450800       1.98033200       1.60039600
H       -1.70860400       1.51150200      -0.64264200
H       -1.18392200      -1.10242400      -0.72163000
H        0.07916400      -0.76218300       0.44340400
H       -0.02754400       0.78756200      -2.22460900
H        2.15704000      -0.00441600      -2.64061600
H        1.92067100      -1.58911900       0.00854000
H        3.40866000      -0.95231000      -0.69575300
H        2.57214600      -2.28025800      -1.47505000
