14
Properties=species:S:1:pos:R:3 pbc="F F F"
O       -2.49549800      -0.90312000      -0.20687900
C       -1.08435300      -0.82773800      -0.16448900
C       -0.67039000       0.28186300       0.80196500
C        0.85148600       0.43905300       0.89870800
C        1.47620700       0.88178900      -0.42245900
O        2.43138800       0.35355300      -0.93045200
H       -2.77099300      -1.60761600      -0.80708100
H       -0.67791800      -0.62604700      -1.17923000
H       -0.65620500      -1.80074800       0.15779500
H       -1.08209100       0.06928900       1.79296000
H       -1.11773300       1.22704200       0.47685800
H        1.31849200      -0.49219700       1.23057300
H        1.08802700       1.19972500       1.65255800
H        0.97360200       1.77727300      -0.90813800
