19
Properties=species:S:1:pos:R:3 pbc="F F F"
C       -0.71777300      -0.93899900       2.47064900
C        0.15375100      -0.77512100       1.47490800
C        0.64992000       0.56182200       0.99911000
C        0.52591700       0.77238500      -0.53733400
C       -0.92122600       0.66605000      -0.97152300
C       -1.40006300      -0.08202600      -1.96531400
C        1.48006900      -0.13399900      -1.31951400
H       -1.03482800      -1.92619900       2.78372300
H       -1.13979400      -0.09126800       2.99838900
H        0.55496300      -1.65160400       0.96577800
H        1.70817100       0.67053900       1.27439200
H        0.10813100       1.36001300       1.51716200
H        0.83695700       1.81772800      -0.72398800
H       -1.61486400       1.28147600      -0.39636500
H       -0.76296000      -0.71813300      -2.56744700
H       -2.45720300      -0.08005500      -2.20133900
H        1.21878500      -1.18372800      -1.20623600
H        2.50237400      -0.00341000      -0.96915600
H        1.45669300       0.10397500      -2.38080200
