16
Properties=species:S:1:pos:R:3 pbc="F F F"
C       -2.46545400      -1.18021600       0.11361100
C       -0.97168800      -0.92573500       0.03609200
O       -0.66166100       0.27890300       0.73739400
C        0.73213100       0.59083100       0.75393300
C        1.25731600       0.94906500      -0.61583200
C        2.47334900       0.63099900      -1.06049800
H       -2.72888700      -2.09606300      -0.41215700
H       -3.02283300      -0.36028300      -0.33402700
H       -2.79025800      -1.27713100       1.14740100
H       -0.64139900      -0.84550800      -1.02141100
H       -0.40456500      -1.77366700       0.47847400
H        1.31125700      -0.24979700       1.19055000
H        0.84644200       1.45477300       1.43279200
H        0.58916200       1.53335900      -1.24840500
H        3.16310900       0.05104300      -0.45660600
H        2.81733800       0.94239400      -2.03958800
