21
Properties=species:S:1:pos:R:3 pbc="F F F"
C       -1.19291100       2.38224900       0.36327000
C       -1.56302600       1.08134000       1.06443300
C       -0.96611900      -0.16842600       0.39992100
C        0.55537400      -0.22069200       0.47783100
C        1.40989100       0.21911700      -0.67666500
C        1.35592400      -1.23331400      -0.29693800
C        0.70482600      -2.24901900      -1.21167400
H       -1.64890800       3.23361500       0.86458800
H       -1.53379300       2.37995900      -0.67006600
H       -0.11597500       2.53284600       0.35850400
H       -2.65394700       0.98274000       1.08781200
H       -1.23759500       1.12707700       2.10953900
H       -1.28765800      -0.21455700      -0.64520200
H       -1.38563200      -1.05555700       0.89199500
H        0.95105600       0.01862000       1.46761900
H        2.31992000       0.77252000      -0.46416200
H        0.90573200       0.51645400      -1.59038400
H        2.24148900      -1.61416900       0.21647100
H       -0.11733900      -1.81157700      -1.77269300
H        0.31360300      -3.09460700      -0.64585100
H        1.42530400      -2.64089500      -1.92923500
