19
Properties=species:S:1:pos:R:3 pbc="F F F"
C       -0.04258300       0.21162600       2.51519600
C       -0.59962500       0.24495900       1.09180000
C       -0.14276400       1.48470000       0.27570300
C        0.21410000       0.93129900      -1.07498300
C        0.19061000      -0.41031300      -1.10267500
C       -0.19202700      -0.98569000       0.23949200
C        0.51741600      -1.28554700      -2.27154200
H       -0.35674600       1.08936600       3.07745500
H        1.04565900       0.18935700       2.51222700
H       -0.39288500      -0.66948500       3.05029800
H       -1.69838900       0.26583300       1.16131400
H        0.72182300       1.98027600       0.73941600
H       -0.92975300       2.24729400       0.21774300
H        0.48193200       1.56346000      -1.91666500
H        0.65455800      -1.52632200       0.68378100
H       -1.00562400      -1.71693000       0.15737800
H        0.73978600      -0.69680500      -3.15865200
H       -0.31273600      -1.95469000      -2.50445800
H        1.38161500      -1.91755400      -2.05777300
