12
Properties=species:S:1:pos:R:3 pbc="F F F"
C       -0.83637500      -0.45431100       0.09662500
C       -1.49764300       0.79292400       0.48183500
N       -2.01830600       1.77286400       0.78620400
C        0.68231500      -0.38019700       0.24358000
C        1.55011300       0.04786500      -0.88977200
N        1.45314500      -1.36282200      -0.51682500
H       -1.09985100      -0.68875600      -0.94029000
H       -1.23801600      -1.26608200       0.71736200
H        1.03600600      -0.16061000       1.25806200
H        2.48683300       0.56191600      -0.66773300
H        1.09881200       0.30779100      -1.84800300
H        2.28188600      -1.66224600       0.00133800
