14
Properties=species:S:1:pos:R:3 pbc="F F F"
C       -2.50835700       0.47917200      -0.72301800
C       -1.51471900      -0.30655900      -0.30884900
C       -0.70867000      -0.05811600       0.94099700
N        0.71348900      -0.31773100       0.74656800
C        1.40360200       0.09858500      -0.37986500
N        2.69333500       0.08460500      -0.49979900
H       -3.08055500       0.23991600      -1.61067900
H       -2.77516800       1.38365700      -0.18771300
H       -1.26811100      -1.20865900      -0.86831400
H       -1.06599200      -0.73301000       1.73807500
H       -0.89166500       0.97073900       1.31150000
H        1.26222500      -0.47703900       1.58827900
H        0.77134100       0.41906700      -1.22107500
H        3.16901400      -0.24127900       0.34696000
