15
Properties=species:S:1:pos:R:3 pbc="F F F"
C       -1.80997000       0.64739400       1.72708700
C       -2.08870600       0.86531200       0.43358100
C       -1.13238800       1.06187400      -0.65855900
C        0.11349000       0.56218200      -0.77439800
C        0.80763800      -0.33161600       0.22089800
C        1.84154100      -1.16881900      -0.39154200
C        2.69797800      -1.86481500      -0.88238300
H       -2.60843800       0.52972100       2.44955100
H       -0.79757100       0.62509500       2.10944300
H       -3.13700500       0.94117400       0.14028200
H       -1.51123900       1.65229200      -1.49355500
H        0.67533500       0.79763100      -1.67682000
H        0.07761900      -0.97343700       0.73335100
H        1.27798000       0.27681200       1.01085200
H        3.44582200      -2.47836100      -1.32121200
