16
Properties=species:S:1:pos:R:3 pbc="F F F"
C       -0.96511000      -1.24640900       1.96890800
O       -1.12289200      -1.44982300       0.57948800
C       -0.76306300      -0.32999600      -0.23890200
C        0.76274000      -0.18488200      -0.36370900
O        1.12246700       0.79806400      -1.34231900
C        0.96568200       2.13880100      -0.92444300
H       -1.37318300      -2.12026000       2.48615500
H       -1.50465100      -0.34355400       2.30865800
H        0.09722800      -1.13421100       2.25513400
H       -1.22034500       0.59353700       0.17052400
H       -1.20507200      -0.50878300      -1.23035300
H        1.20404000      -1.13651500      -0.69532200
H        1.22077000       0.07514200       0.61211600
H        1.37341600       2.78586800      -1.70722400
H        1.50610100       2.33324000       0.01992200
H       -0.09640000       2.40451900      -0.76808200
