21
Properties=species:S:1:pos:R:3 pbc="F F F"
C        1.39215400       1.33177300      -1.34070800
C        0.50650800       0.19255800      -0.80617000
C       -0.96200400       0.58871200      -0.87069500
C       -1.50954400       1.59485500      -0.18797900
C        0.96098500      -0.21861400       0.61888800
C        0.49137700      -1.61106700       1.06252400
C       -1.00519100      -1.72299500       1.32292800
H        2.43840900       1.03105300      -1.36173600
H        1.30902500       2.21709700      -0.71379700
H        1.09965300       1.60921800      -2.35127600
H        0.64829300      -0.67671000      -1.46802600
H       -1.59075700       0.01343800      -1.55174000
H       -0.92700800       2.20111700       0.49610500
H       -2.56023700       1.83717300      -0.29068400
H        0.62699100       0.53311300       1.34098400
H        2.05676100      -0.20508700       0.64475000
H        1.02974700      -1.87884100       1.97874100
H        0.78652500      -2.35107100       0.30993000
H       -1.32694200      -0.99876500       2.06816900
H       -1.25610800      -2.71692300       1.68897800
H       -1.58007200      -1.54614300       0.41687800
