13
Properties=species:S:1:pos:R:3 pbc="F F F"
C       -2.12364700      -0.47953900      -0.40583200
C       -0.58838200      -0.44421500      -0.40816200
C       -0.05963400       0.87718600       0.22319100
C        1.39556400       0.99468400       0.16165200
N        2.53932600       1.10937200       0.11282000
O       -0.06326900      -1.56975100       0.28406700
H       -2.53673300       0.33999900      -0.99029500
H       -2.51770200      -0.40219000       0.60661100
H       -2.47979500      -1.41382300      -0.83215100
H       -0.22029600      -0.51726000      -1.44674500
H       -0.37393000       0.94267100       1.27246500
H       -0.50184700       1.73745500      -0.29344200
H       -0.38223500      -1.58314700       1.19618000
