23
Properties=species:S:1:pos:R:3 pbc="F F F"
C       -3.05787300       0.30702600      -1.14197600
C       -1.54278500       0.14870000      -1.10786800
C       -0.89914800       0.91070300       0.05769700
C        0.63474800       0.85528700       0.06466700
C        1.24459900      -0.54551300       0.30743400
C        2.76138000      -0.51235100       0.07212100
C        0.93006100      -1.07939900       1.71099300
H       -3.48696800      -0.24207300      -1.97764800
H       -3.34018100       1.35280200      -1.24772400
H       -3.51192100      -0.06772200      -0.22669100
H       -1.11828500       0.50339800      -2.05325200
H       -1.29241400      -0.91487200      -1.03879200
H       -1.29423400       0.52863300       1.00472700
H       -1.20578700       1.96149400       0.00494500
H        1.00841300       1.54220600       0.83221200
H        1.00753900       1.23704300      -0.89262600
H        0.80920200      -1.24328500      -0.42548300
H        3.25275600       0.15635600       0.77632100
H        2.99271100      -0.16676900      -0.93365700
H        3.19464300      -1.50276200       0.19608800
H        1.33138100      -0.42060800       2.47860800
H        1.36953600      -2.06443600       1.85441000
H       -0.14228600      -1.16612100       1.87015000
