17
Properties=species:S:1:pos:R:3 pbc="F F F"
C       -2.97918700      -0.54975600      -1.13066300
C       -1.64523200      -0.37588300      -1.12701200
C       -0.88105900      -0.10267600       0.07611000
C        0.46884100       0.08215400       0.16683700
C        1.04723100       0.35162900       1.48609100
C        2.34666000       0.56962400       1.74677900
C        1.40093800       0.02409700      -1.01202700
H       -3.51631600      -0.75239300      -2.04854800
H       -3.55691600      -0.49253200      -0.21538000
H       -1.10675300      -0.44221100      -2.07164100
H       -1.45885400      -0.04010700       0.99921100
H        0.33861000       0.37335400       2.31516800
H        3.09778100       0.56309600       0.96620000
H        2.68508800       0.76292200       2.75700900
H        0.87764600      -0.17175700      -1.94317500
H        2.14715100      -0.75942200      -0.87411500
H        1.94340400       0.96391500      -1.12141700
