17
Properties=species:S:1:pos:R:3 pbc="F F F"
C       -2.90108100      -0.31443200      -0.88483400
C       -1.43878100      -0.37148600      -0.58631700
C       -0.49478300       0.20362000      -1.35820800
C        0.94868800       0.15989800      -1.14156500
C        1.62625400       0.12440200       0.03350300
C        1.05791000       0.22784300       1.36808700
C        1.77259400       0.05040000       2.49245700
H       -3.31269100      -1.31732700      -1.01437200
H       -3.10456700       0.25765100      -1.78722500
H       -3.44916600       0.14387800      -0.05914000
H       -1.14870200      -0.94028100       0.29555600
H       -0.81364900       0.70012400      -2.27651600
H        1.54449900       0.17884400      -2.05581700
H        2.71372300       0.06124600      -0.01412700
H        0.00471500       0.49439100       1.44719000
H        2.82112300      -0.22284400       2.45611000
H        1.31990600       0.16284000       3.46960400
