17
Properties=species:S:1:pos:R:3 pbc="F F F"
C        0.26231700      -0.76417600       2.47497000
N       -0.16382000      -0.55511900       1.09277300
C        0.64203200       0.44872100       0.38065900
C        0.16371300       0.62238700      -1.07844400
O       -1.20708800       1.04697000      -1.10938300
C        0.33340700      -0.65414800      -1.91003400
H       -0.39064800      -1.49874000       2.95202600
H        0.23906700       0.15899900       3.08110200
H        1.28566900      -1.14856400       2.49865000
H       -1.14533300      -0.26558200       1.07885200
H        1.69429900       0.12777200       0.38512300
H        0.61289900       1.43135900       0.89433300
H        0.74958500       1.43957300      -1.54130000
H       -1.77976300       0.28163300      -0.96760600
H       -0.20363900      -1.48606800      -1.45746900
H        1.38225400      -0.93498900      -1.98266100
H       -0.04975600      -0.51203400      -2.91829800
