23
Properties=species:S:1:pos:R:3 pbc="F F F"
C        0.11106000       0.81991500      -2.30356600
C       -0.26798400       0.93554100      -0.83156800
C        0.30507400      -0.17739600       0.09844900
C       -0.12542400       0.10774700       1.57377400
C       -1.62507100       0.09496600       1.84694400
C       -0.19702400      -1.57030800      -0.34211000
C        1.85165300      -0.16171700       0.05751400
H       -0.33478800       1.63493900      -2.87041500
H       -0.24242400      -0.11420800      -2.73427400
H        1.18788800       0.86944600      -2.44727600
H       -1.35951700       0.93287200      -0.75354000
H        0.06455700       1.90859800      -0.45408400
H        0.28246700       1.07943700       1.87326000
H        0.35454300      -0.63485500       2.22024800
H       -2.14562400       0.86406000       1.28056400
H       -1.81404200       0.27997300       2.90264400
H       -2.06948500      -0.86515800       1.59440200
H       -1.28156500      -1.59309900      -0.42048600
H        0.10559600      -2.33269000       0.37303900
H        0.21358200      -1.84369300      -1.31147900
H        2.23833100       0.81823600       0.33059500
H        2.22429800      -0.40665100      -0.93424500
H        2.26248100      -0.88969200       0.75443100
