17
Properties=species:S:1:pos:R:3 pbc="F F F"
C       -3.06014300      -0.86513200      -0.57586700
C       -1.60401600      -0.84541900      -0.51601100
C       -0.39585400      -0.81561000      -0.46228300
C        1.07046500      -0.83228300      -0.41493200
C        1.66026200      -0.18395300       0.84623900
C        1.50025000       1.30731600       0.96094700
C        0.88257200       2.11003400       0.09474500
H       -3.41032800      -1.64583200      -1.25374200
H       -3.44812300       0.09067000      -0.93254700
H       -3.48708300      -1.05719500       0.41017000
H        1.46983100      -0.33688300      -1.31001700
H        1.41100200      -1.87623300      -0.46443100
H        2.73282800      -0.42024100       0.89132600
H        1.22486700      -0.65397900       1.73737100
H        1.95125600       1.74292900       1.85446200
H        0.41132000       1.73018000      -0.80307000
H        0.82321600       3.17686300       0.27345600
