18
Properties=species:S:1:pos:R:3 pbc="F F F"
C       -1.68574300       0.91044400      -0.01883000
C       -0.15427400       0.79952400       0.02709900
C        0.30352800       0.22132900       1.35361600
C        1.41700200      -0.47894500       1.57256000
C        0.40981700       0.07249800      -1.21582400
C       -0.05208700      -1.37098500      -1.37167800
H       -2.05227400       1.51598400       0.80811500
H       -2.15828100      -0.06664300       0.05084800
H       -2.01140700       1.37454200      -0.94766500
H        0.23858800       1.83398400      -0.01208200
H       -0.34130200       0.45129500       2.20359600
H        2.10409100      -0.73588500       0.77541400
H        1.67275600      -0.81734900       2.56946100
H        1.50369900       0.10073700      -1.17892700
H        0.12117200       0.64091200      -2.10662700
H        0.21072800      -1.96334900      -0.49867900
H        0.41313400      -1.82844700      -2.24267300
H       -1.13035500      -1.42897200      -1.50243800
