12
Properties=species:S:1:pos:R:3 pbc="F F F"
C       -2.14041800      -0.25392900       0.13572000
C       -0.63324300      -0.50038700       0.10009600
O       -0.14245800      -1.54937800       0.47150300
C        0.23119300       0.63282800      -0.44477600
C        1.68839600       0.43640900      -0.64883900
O        1.21910000       1.14164900       0.47534900
H       -2.66458400      -1.11305800       0.54358600
H       -2.51644100      -0.05616600      -0.86800800
H       -2.36714200       0.62019500       0.74482800
H       -0.28337700       1.42736500      -1.00892400
H        2.21485700       1.03999800      -1.40105900
H        2.12798100      -0.54602700      -0.43844600
