16
Properties=species:S:1:pos:R:3 pbc="F F F"
C       -2.70502800      -0.76048100       0.87507800
C       -1.67867800       0.08243800       0.98788300
C       -0.88016900       0.61315800      -0.17474400
C        0.60742000       0.45403000       0.02010100
C        1.42644200      -0.08636200      -0.89004600
C        2.90482300      -0.23053600      -0.71108900
H       -3.25164700      -1.10004300       1.74642400
H       -3.02511400      -1.13753900      -0.08937200
H       -1.37937200       0.43613200       1.97522700
H       -1.10610900       1.68753100      -0.28134000
H       -1.19746400       0.13531700      -1.10645800
H        1.01473300       0.81517900       0.96490300
H        1.01553100      -0.45213100      -1.83139800
H        3.22993500       0.15147500       0.25392300
H        3.44597000       0.30797300      -1.49123000
H        3.20467400      -1.27737200      -0.78376700
