17
Properties=species:S:1:pos:R:3 pbc="F F F"
C        0.26455300       2.58798900      -0.74900700
C        0.58126800       1.25692700      -0.07527700
C       -0.67018200       0.53564800       0.40630400
C       -1.42903500      -0.36780600      -0.51442800
C       -0.66218200      -0.95683800       0.64323900
C        0.52962000      -1.74477900       0.40016300
C        1.51449300      -2.42736600       0.23180000
H        1.17653800       3.08184700      -1.07749400
H       -0.25237300       3.25943600      -0.06600100
H       -0.37230500       2.44450100      -1.61951700
H        1.24994300       1.43171400       0.77572300
H        1.12623500       0.61173600      -0.76998500
H       -1.27707200       1.10848000       1.11093100
H       -1.03064000      -0.52729800      -1.51060400
H       -2.51332900      -0.37856300      -0.45235300
H       -1.25994600      -1.31650200       1.48458300
H        2.38173800      -3.01799800       0.06794900
