14
Properties=species:S:1:pos:R:3 pbc="F F F"
O       -0.63339000       0.73639700       2.07359700
C       -0.46953100       0.58532000       0.68890700
C        0.79674700       1.03335800       0.04339100
C        0.50247300      -0.45626700       0.16706900
C        0.17193700      -1.27478000      -1.02781200
C       -0.38904900      -0.82376800      -2.15520800
H        0.22557900       0.70721400       2.51438500
H       -1.41426800       0.71801000       0.15557700
H        1.58774200       1.42673300       0.67515600
H        0.75567800       1.46310500      -0.95275700
H        1.08373000      -0.97733200       0.92787400
H        0.39904600      -2.33718200      -0.94115400
H       -0.63502300       0.22243400      -2.29349200
H       -0.61082900      -1.49733500      -2.97244600
