19
Properties=species:S:1:pos:R:3 pbc="F F F"
C       -0.80912400       0.01388100      -1.87650700
C       -1.31187800       0.01949900      -0.44912200
C       -0.66764500      -0.74078500       0.68231400
C       -0.64440000       0.76177800       0.68063800
C        0.79271900       1.23617200       0.50757900
C        1.65112400      -0.02682100       0.27403200
C        0.75409300      -1.26070200       0.51620700
H       -1.14868500      -0.87867900      -2.40256300
H        0.27465700       0.04099300      -1.93353600
H       -1.19253800       0.87743000      -2.42041900
H       -2.40345300       0.03450200      -0.38948800
H       -1.32686100      -1.28386900       1.36157100
H       -1.28448400       1.32749600       1.35970100
H        1.11747400       1.76338900       1.41110700
H        0.89969200       1.94865500      -0.31839500
H        2.51856900      -0.03810500       0.94063800
H        2.05478900      -0.03694400      -0.74292800
H        1.06041500      -1.78879400       1.42584100
H        0.84108400      -1.98421000      -0.30237400
