14
Properties=species:S:1:pos:R:3 pbc="F F F"
C       -1.56124800      -0.25522500      -0.82019600
C       -0.02755800      -0.23703600      -0.74042900
C        0.47572500       1.11045600      -0.42000100
C        0.90405700       2.19969000      -0.11891600
C        0.49974100      -1.26281700       0.29993900
O        0.05691200      -0.95133000       1.60406500
H       -1.92416000       0.48028900      -1.53453000
H       -1.99784800      -0.03473700       0.15073000
H       -1.91075900      -1.23745400      -1.13255800
H        0.37837000      -0.51799400      -1.72846000
H        1.27129000       3.17042700       0.10869300
H        1.60958100      -1.29073000       0.26385500
H        0.13566300      -2.27124100       0.05180900
H        0.23826300      -0.01833700       1.78555500
