17
Properties=species:S:1:pos:R:3 pbc="F F F"
C        0.33375000      -1.95608500       1.05866000
C       -0.26021800      -0.60195900       1.43103400
C       -0.08914600       0.50142200       0.35832500
C       -0.75944200       0.15805400      -0.99901900
N       -0.62481900       1.24558800      -1.97632100
O        1.29884000       0.79669700       0.14924500
H        0.21816700      -2.66099800       1.87905300
H        1.39807200      -1.87491300       0.84305800
H       -0.15374300      -2.38240200       0.18410300
H        0.20264700      -0.25579900       2.36010200
H       -1.32796600      -0.72262000       1.64474100
H       -0.53900100       1.43348200       0.75094400
H       -0.30767600      -0.75136000      -1.42135000
H       -1.82587900      -0.05577200      -0.84802900
H        0.35646700       1.51106200      -2.04457700
H       -1.14070100       2.06394700      -1.66053000
H        1.75295500      -0.00591300      -0.14121800
