16
Properties=species:S:1:pos:R:3 pbc="F F F"
C       -0.73050700       0.61786600       1.97508800
C       -1.09740300       0.70119500       0.50864000
C       -0.17984800       1.36337700      -0.47831700
C       -0.40509900      -0.12244700      -0.54436800
C        0.72324400      -1.09163100      -0.21329200
O        1.46043600      -1.42596300      -1.38240700
H       -1.05923000       1.51211000       2.50359100
H        0.34385400       0.52635300       2.11605600
H       -1.20731100      -0.23849400       2.45159400
H       -2.16281300       0.86632200       0.33608900
H        0.78263300       1.70977400      -0.11365700
H       -0.61916800       1.98711700      -1.25085400
H       -1.04314400      -0.46056200      -1.36281400
H        1.40126900      -0.65502100       0.54978800
H        0.32734900      -2.03264900       0.20130000
H        1.69076100      -0.61740900      -1.85834200
