15
Properties=species:S:1:pos:R:3 pbc="F F F"
C       -2.45426800      -0.74852200       0.69101700
C       -1.38730100       0.03126900       0.86635100
C       -0.52686100       0.55970000      -0.25066300
N        0.90317400       0.51316700       0.11215100
C        1.60766800      -0.73334300      -0.18936900
C        1.85086900       0.49061100      -1.00173900
H       -3.05255100      -1.08234000       1.53003400
H       -2.76067800      -1.07684700      -0.29599400
H       -1.10584100       0.33740300       1.87394100
H       -0.79280400       1.61591200      -0.43721100
H       -0.73623600       0.01372600      -1.19150100
H        1.03056500      -1.54450600      -0.63934000
H        2.34527700      -1.04905300       0.55066900
H        1.44444100       0.52698800      -2.01571500
H        2.76497700       1.06826100      -0.85353100
