17
Properties=species:S:1:pos:R:3 pbc="F F F"
C       -1.32169800       0.11708500      -1.59996100
C       -0.40063900      -1.00632700      -1.13790300
C        0.95304700      -0.54917500      -0.57033500
C        0.96968600       0.05123400       0.84010100
C        0.28529900       1.32499300       1.20165100
N       -0.20290300       0.04384400       1.71639500
H       -2.19695400      -0.29245300      -2.10039200
H       -0.81336400       0.77498100      -2.30197100
H       -1.67256800       0.72349600      -0.76827100
H       -0.19624200      -1.65801200      -1.99438800
H       -0.91989700      -1.63136700      -0.40391300
H        1.41414600       0.16006000      -1.26934600
H        1.61632800      -1.42200600      -0.56095900
H        1.90536600      -0.15742400       1.37517000
H       -0.32625800       1.83481800       0.45597800
H        0.73310200       1.98516700       1.94687400
H       -1.03750900      -0.25103100       1.20513000
