19
Properties=species:S:1:pos:R:3 pbc="F F F"
C       -1.29890800      -0.15058100       1.67571300
C        0.16885400       0.02947000       1.29386200
N        0.48938400      -0.38401000      -0.09495900
C        0.14280100       0.62166800      -1.13091500
C       -1.32564000       0.60036800      -1.55235100
C        1.89063500      -0.80929200      -0.21336800
H       -1.42278500      -0.01564800       2.74868100
H       -1.64936000      -1.14802900       1.42069900
H       -1.94566200       0.56926000       1.18095800
H        0.77541300      -0.59012800       1.96859500
H        0.47507400       1.07997600       1.48074600
H        0.75539300       0.40471600      -2.01672400
H        0.42221900       1.64503400      -0.80503200
H       -1.65413500      -0.41331900      -1.76975500
H       -1.46345000       1.19780200      -2.45177800
H       -1.98093200       1.00840600      -0.78708800
H        2.10143500      -1.60415800       0.50750100
H        2.61635500       0.00628700      -0.03298400
H        2.07829500      -1.20193100      -1.21674600
