17
Properties=species:S:1:pos:R:3 pbc="F F F"
C       -1.74553200      -1.81474700      -0.65724800
C       -1.22204100      -1.40532600       0.49832600
C       -1.02191200       0.03684600       0.87822400
C        0.41119400       0.34469600       1.33752000
C        1.45449800       0.17382100       0.22133500
C        1.27775700       1.11628100      -0.88447400
C        1.14897500       1.89314600      -1.80080800
H       -1.88074700      -2.86783100      -0.87151200
H       -2.05111800      -1.10845500      -1.42020800
H       -0.92262100      -2.14445000       1.24307400
H       -1.70751300       0.28313300       1.70070000
H       -1.28932600       0.68568000       0.03993400
H        0.67852600      -0.31479000       2.17087700
H        0.45414500       1.36849700       1.72220800
H        1.41037900      -0.84932900      -0.17316800
H        2.46196400       0.30592100       0.63834900
H        1.02868100       2.57331100      -2.60751000
