17
Properties=species:S:1:pos:R:3 pbc="F F F"
C       -1.62873800       0.73269500      -0.80557500
C       -0.09311400       0.70330300      -0.81819900
C        0.45776200       0.31471600       0.55396900
C        1.26575900       1.12750200       1.25870400
C        0.07325500      -0.97519100       1.07145900
C       -0.26853300      -2.06207400       1.48542400
C        0.43280800      -0.24438000      -1.90709500
H       -1.99702800       1.43535900      -0.06120300
H       -2.03401200      -0.24931700      -0.57236300
H       -2.01371000       1.03502500      -1.77759300
H        0.26889400       1.71862100      -1.04355900
H        1.55400200       2.09707200       0.87042000
H        1.64992700       0.83950900       2.22908800
H       -0.55600200      -3.01063900       1.86864600
H        0.11726000      -1.26775700      -1.71720100
H        1.51994300      -0.22731700      -1.94374900
H        0.05553400       0.05002300      -2.88460800
