11
Properties=species:S:1:pos:R:3 pbc="F F F"
C       -1.22172000      -1.13252900       0.64125100
N        0.23910200      -1.04967900       0.63686100
C        0.78735100      -0.28802000      -0.48783100
C        0.37555300       1.12253000      -0.45601500
N        0.07001000       2.23120200      -0.47356400
H       -1.54563800      -1.73699000       1.49025000
H       -1.62923600      -1.58500000      -0.27962400
H       -1.65140200      -0.13381000       0.74226600
H        0.64275600      -1.98929500       0.64084600
H        0.48672300      -0.70538900      -1.47469300
H        1.88591100      -0.33207000      -0.44655800
