18
Properties=species:S:1:pos:R:3 pbc="F F F"
C       -0.14092200      -2.50679200      -0.55598100
C       -0.55104300      -1.32194500       0.30820600
C       -0.03022900       0.02663100      -0.23317900
C       -0.60502800       1.20322500       0.59969700
N       -0.23872400       2.49855000       0.02042000
N        1.44770400       0.02499500      -0.25495400
H       -0.49261400      -3.44305100      -0.12628300
H        0.94118100      -2.55932200      -0.64669900
H       -0.55555400      -2.42018800      -1.55864500
H       -0.18037900      -1.46813100       1.32923400
H       -1.64353600      -1.28029300       0.38199600
H       -0.36965200       0.14378400      -1.27670900
H       -0.26385800       1.11080300       1.65323800
H       -1.70185400       1.13136300       0.62353000
H        0.77199000       2.60293600      -0.01769900
H       -0.61861600       3.25975600       0.57703300
H        1.81761200      -0.01824800       0.69179800
H        1.79575000       0.86906100      -0.70151300
