21
Properties=species:S:1:pos:R:3 pbc="F F F"
C        0.56366700      -1.33067400      -2.17847800
C        0.11080900      -0.17737300      -1.27269200
C        0.48878800      -0.46581100       0.20025900
C       -0.12737800       0.50912500       1.19488900
C       -1.52437300       0.29908800       1.69433000
C       -0.36191400       0.08163400       2.61209000
C        0.69051800       1.15527100      -1.76417600
H        0.12235700      -2.27302100      -1.85978500
H        1.64573200      -1.44452600      -2.15577500
H        0.26903500      -1.15256000      -3.21070900
H       -0.98734400      -0.11227100      -1.33334000
H        1.58093100      -0.45169000       0.30136700
H        0.16953800      -1.48210200       0.45386700
H        0.17431400       1.54936700       1.06123600
H       -2.06360700      -0.57739000       1.35002500
H       -2.14791300       1.17125900       1.86337000
H       -0.12107400      -0.94098100       2.88444800
H       -0.19615900       0.80698700       3.40231700
H        1.77732000       1.15373500      -1.70601000
H        0.32372500       1.98785000      -1.16806700
H        0.41244200       1.33778200      -2.80027000
