13
Properties=species:S:1:pos:R:3 pbc="F F F"
N       -1.63810100      -0.75468800       1.04256900
C       -0.17856300      -0.82065500       1.00956600
C        0.40639800       0.44152800       0.33079500
C       -0.03536800       0.56017500      -1.07738400
C       -0.38283200       0.62771700      -2.23300200
O        1.83504600       0.41775100       0.39135600
H       -2.02951800      -1.59320400       1.46404900
H       -2.01451300      -0.65663300       0.10183500
H        0.19290200      -1.72587100       0.48525800
H        0.20420100      -0.87675500       2.03699700
H        0.07503300       1.34037300       0.88546800
H       -0.68707300       0.71485200      -3.24762000
H        2.18748700      -0.11454000      -0.33466600
