17
Properties=species:S:1:pos:R:3 pbc="F F F"
C       -2.26139000       1.24161400       1.26617900
C       -0.79409600       0.91489300       1.08661000
C       -0.03040000       1.47245300      -0.08013200
C       -0.34455400       0.00596100      -0.02366400
C        0.77038000      -1.00672700       0.22743900
C        1.43232200      -1.44136400      -1.00488900
C        1.97873600      -1.80999100      -2.01738600
H       -2.39006300       2.19870300       1.77109100
H       -2.76268700       0.48327900       1.86730600
H       -2.76970300       1.29890600       0.30626500
H       -0.23494200       0.83811700       2.02121900
H        0.99758400       1.77907100       0.08574000
H       -0.57063400       2.07823000      -0.80048600
H       -1.11974100      -0.34097500      -0.70771900
H        1.52049500      -0.57539300       0.90315300
H        0.36559000      -1.89277100       0.73853100
H        2.45810800      -2.12820500      -2.91005000
