21
Properties=species:S:1:pos:R:3 pbc="F F F"
C        1.09373900       1.26284200      -1.35202700
C        0.37902800       0.25112500      -0.44549400
C       -1.14208400       0.52271500      -0.37230100
C       -1.87374900       0.28833400      -1.68840100
C        1.01007400       0.27456200       0.96462100
C        0.65475900      -0.86256200       1.88465500
C        0.08461200      -2.02107100       1.55122000
H        2.15748500       1.04065500      -1.41580400
H        0.98747200       2.27638800      -0.96912400
H        0.68854600       1.24299100      -2.36107200
H        0.52989100      -0.75075100      -0.87695900
H       -1.57904000      -0.12158600       0.39652300
H       -1.30934900       1.55323900      -0.04089900
H       -1.72840600      -0.73045900      -2.04235000
H       -1.52447100       0.96337200      -2.46669500
H       -2.94278300       0.44986500      -1.56613900
H        0.75373400       1.21899000       1.46197300
H        2.10501600       0.29502200       0.86592000
H        0.93615500      -0.70337200       2.92742400
H       -0.21129300      -2.24795200       0.53426300
H       -0.10122900      -2.78206900       2.29930000
