17
Properties=species:S:1:pos:R:3 pbc="F F F"
C       -2.01263700       1.03397100       0.42823600
C       -2.05875500      -0.12427400      -0.24284800
C       -1.06046500      -1.19888300      -0.19957500
C        0.28177800      -1.12268600      -0.07238100
C        1.15757300       0.06880400      -0.06661700
C        0.97030800       1.12440800      -0.87897700
C        2.36001900      -0.01508600       0.83876300
H       -2.83062700       1.74173200       0.37003700
H       -1.16443300       1.29950200       1.04669300
H       -2.95724000      -0.35788200      -0.81745600
H       -1.48912400      -2.20151300      -0.26186900
H        0.81811900      -2.06951900       0.02413700
H        0.12418500       1.17278900      -1.55176800
H        1.66537400       1.95513900      -0.87987600
H        2.05597200      -0.11343200       1.88131900
H        2.98781300       0.86772700       0.74911200
H        2.96303900      -0.89206700       0.60006800
