11
Properties=species:S:1:pos:R:3 pbc="F F F"
C       -2.25538000       0.64492200       0.63873400
C       -0.77491600       0.48469100       0.66406100
C       -0.05439800      -0.15574200      -0.27442900
C        1.41973800      -0.28030300      -0.18804200
O        2.10475300      -0.84624600      -1.01109000
H       -2.52749400       1.70168400       0.64277600
H       -2.70452600       0.20311500       1.52975000
H       -2.69574200       0.17772400      -0.23856600
H       -0.25295800       0.92672200       1.51651800
H       -0.55031900      -0.60524100      -1.13331700
H        1.88275200       0.20456000       0.72961500
