16
Properties=species:S:1:pos:R:3 pbc="F F F"
C       -1.50942600       0.32336800      -0.62906100
C       -0.03153700       0.18904900      -0.28840200
C        0.31440000       0.19586200       1.20347300
N       -0.19314900      -1.00311700       1.88064500
C        0.85850500      -0.54933100      -1.23666900
N        0.92269800       0.91329100      -1.14642300
H       -2.08592200      -0.50879800      -0.22543500
H       -1.66424400       0.34372500      -1.70610100
H       -1.92527100       1.24112000      -0.21266800
H       -0.08152900       1.12507500       1.66745900
H        1.40488500       0.22810600       1.32151800
H       -1.20535500      -1.06233900       1.80258000
H        0.05226100      -0.98559900       2.86709500
H        0.42856600      -0.97006200      -2.14796800
H        1.73637000      -1.07518800      -0.85971200
H        0.44174900       1.33905100      -1.94237500
