17
Properties=species:S:1:pos:R:3 pbc="F F F"
C       -2.53801000       1.08448200       0.08607500
C       -1.01613500       1.11850600       0.10559200
N       -0.46641300      -0.21482800       0.39963100
C        0.99114400      -0.26464800       0.39495600
C        1.66989700      -1.54734600       0.05543300
C        1.76176700      -0.38329900      -0.89599800
H       -2.94469600       2.07328200      -0.11431400
H       -2.93359800       0.74339100       1.04026100
H       -2.90422400       0.40873400      -0.68529100
H       -0.66727600       1.82288600       0.87614100
H       -0.64112900       1.51275200      -0.86302700
H       -0.84285500      -0.90070100      -0.25842900
H        1.44319600       0.34685500       1.18258700
H        1.05451000      -2.38849900      -0.24755600
H        2.56551800      -1.82361700       0.60268500
H        1.20385000      -0.45704900      -1.82338800
H        2.71961900       0.11959700      -0.98343600
