14
Properties=species:S:1:pos:R:3 pbc="F F F"
C       -1.63221000      -0.82643200       0.46448500
C       -0.13062200      -0.96896700       0.34163700
N        0.52123600      -2.05824800       0.63505300
N        0.59695700       0.12144200      -0.10974100
C        0.10050500       1.36373500      -0.47465500
C        0.88005800       2.37862000      -0.89898900
H       -2.06544600      -1.74684800       0.84550400
H       -2.08953400      -0.61023700      -0.50067600
H       -1.89919200      -0.01794300       1.14420800
H       -0.09580600      -2.80599100       0.95904600
H        1.60331000      -0.01692800      -0.17458600
H       -0.97985600       1.48079200      -0.39938700
H        1.95329700       2.26807500      -0.97497100
H        0.43949100       3.32498200      -1.17118900
