17
Properties=species:S:1:pos:R:3 pbc="F F F"
C       -1.63380500      -0.05406600      -1.65779900
C       -0.69218600      -0.10388200      -0.71151700
C        0.01598600      -1.31435000      -0.13006000
C        0.91819900      -0.56299700       0.86590500
C        1.43352300       0.60685600       0.01320600
C       -0.05134300       1.02539400       0.06183900
C       -0.06133600       0.44237700       1.49094900
H       -2.00514900      -0.95452900      -2.13185400
H       -2.05508600       0.89054000      -1.98014300
H        0.58080300      -1.87697000      -0.88182900
H       -0.67167000      -2.01497100       0.35671600
H        1.59690000      -1.16451900       1.48544300
H        1.86985700       0.37949600      -0.96367000
H        2.08526400       1.28743600       0.56517200
H       -0.37457000       2.05229500      -0.15064400
H       -1.00911200       0.06244400       1.88296200
H        0.40853200       1.10278600       2.22271100
