18
Properties=species:S:1:pos:R:3 pbc="F F F"
C       -1.03287200       2.16943500       0.28484300
C       -1.37541600       0.87440900      -0.44248900
C       -0.80389400      -0.38352700       0.22710800
C        0.73955400      -0.48302700       0.22159300
O        1.13980500      -1.59731100       1.03114200
C        1.33007700      -0.63158300      -1.18822600
H       -1.50892300       3.01848400      -0.20096000
H        0.03979200       2.35066400       0.29392100
H       -1.37412200       2.13841800       1.31739200
H       -1.02768100       0.93437900      -1.47922900
H       -2.46482800       0.77431300      -0.49400300
H       -1.21908800      -1.26844300      -0.26993500
H       -1.14663900      -0.42595600       1.26526300
H        1.17070200       0.41282200       0.70420800
H        0.81931600      -2.41656500       0.63043500
H        0.92205800      -1.50488100      -1.69573900
H        2.40970200      -0.75029100      -1.13627600
H        1.11656900       0.24129600      -1.80118100
