8
Properties=species:S:1:pos:R:3 pbc="F F F"
C       -3.21283200       0.00000000       0.00000000
C       -1.99449500       0.00000000       0.00000000
C       -0.61354400       0.00000000       0.00000000
C        0.61354400       0.00000000       0.00000000
C        1.99449500       0.00000000       0.00000000
C        3.21283200       0.00000000       0.00000000
H       -4.27583700       0.00000000       0.00000000
H        4.27583700       0.00000000       0.00000000
