21
Properties=species:S:1:pos:R:3 pbc="F F F"
C       -1.68668500      -2.35149000       0.62985900
C       -2.08954000      -1.02377300       1.25812900
C       -1.58397000       0.19620500       0.47020800
C       -0.08230700       0.31429200       0.45072200
C        0.64246200       0.49742200      -0.65945000
C        2.14345200       0.62982900      -0.68064900
C        2.61424300       1.89192000      -1.40060000
H       -2.05808800      -3.18795400       1.21863500
H       -0.60451300      -2.43846000       0.56445800
H       -2.08919100      -2.44506200      -0.37686000
H       -1.70978000      -0.97464400       2.28443800
H       -3.18146200      -0.97146700       1.33032000
H       -2.00718500       1.10071800       0.93026700
H       -1.96814900       0.16246900      -0.55450600
H        0.42057200       0.26108700       1.41723300
H        0.13941400       0.55346300      -1.62541400
H        2.57534100      -0.24476300      -1.18699800
H        2.53355200       0.61869700       0.34222500
H        2.25994100       1.90914100      -2.42937900
H        3.70105700       1.94396000      -1.41800500
H        2.24255900       2.78639200      -0.90573600
