17
Properties=species:S:1:pos:R:3 pbc="F F F"
C       -2.37283300      -0.19164400      -0.26186200
C       -1.25870000      -0.36579800      -1.23401100
N       -1.05278100       0.38175300       0.00616500
C       -0.25392700      -0.28502400       1.04600700
C        1.24471600      -0.07791300       0.85085400
C        1.80796000       1.02820200       0.02820000
N        1.82245300      -0.34771800      -0.47028100
H       -2.68147700      -1.05528800       0.33332500
H       -3.16693900       0.52923400      -0.46566500
H       -1.24174400       0.22853400      -2.14934700
H       -0.79232100      -1.34934600      -1.31480800
H       -0.47145100      -1.37298700       1.09607100
H       -0.54441800       0.12883900       2.02700100
H        1.85185400      -0.40934500       1.70565000
H        2.76623100       1.46565100       0.31910100
H        1.13308900       1.70374500      -0.49681500
H        2.75618400      -0.75421700      -0.38083000
