17
Properties=species:S:1:pos:R:3 pbc="F F F"
C        1.74066600      -1.50256100      -0.77185700
C        0.88401900      -0.98037900       0.37511500
C       -0.42725800      -0.33947500      -0.10720700
C       -1.28809800       0.33558600       0.98108600
C       -0.97463200       1.66931000       0.29437000
N       -0.26884100       0.97092000      -0.80298700
H        2.66504900      -1.94074800      -0.40045800
H        2.00215000      -0.70194000      -1.46106200
H        1.21025800      -2.26622600      -1.33750700
H        1.45625100      -0.25102400       0.95890100
H        0.64821800      -1.80448100       1.05801300
H       -0.98235800      -1.06959000      -0.72938300
H       -0.91737800       0.23684300       2.00483400
H       -2.34339700       0.05165700       0.96961500
H       -0.32825400       2.34163100       0.88110100
H       -1.84420900       2.25445700      -0.04593600
H        0.70737400       1.25809600      -0.90625000
