17
Properties=species:S:1:pos:R:3 pbc="F F F"
C        1.50591700      -0.33181300       0.70334500
C        0.75450700      -0.21046900      -0.62713900
C       -0.78632200      -0.27775900      -0.47718500
C       -1.42681000       0.98406800       0.11582100
N       -1.14727800       1.13268600       1.54685000
O        1.18674600      -1.24803900      -1.52040000
H        2.58047000      -0.29801100       0.53670200
H        1.27376500      -1.27467400       1.19784600
H        1.23596600       0.47655100       1.37829500
H        1.02589300       0.74419900      -1.11584000
H       -1.21241800      -0.44533000      -1.47094700
H       -1.06317600      -1.14934000       0.12746800
H       -2.51964300       0.95218000      -0.08082500
H       -1.04906100       1.87414400      -0.40831200
H       -1.49494100       0.32919400       2.06423100
H       -1.59459800       1.96988200       1.91108800
H        1.07097100      -2.10744700      -1.09351200
