11
Properties=species:S:1:pos:R:3 pbc="F F F"
N       -2.04343500      -0.05559000      -0.16144900
C       -0.64961900       0.07143300      -0.03784200
C        0.16783400       1.17926500       0.01271600
C        1.50017400       0.64969100       0.07906300
C        1.38052900      -0.71305800       0.05871500
O        0.06235900      -1.05812200      -0.01475500
H       -2.56863600       0.74930500       0.16109400
H       -2.41261600      -0.93508000       0.18440600
H       -0.12761300       2.21710400       0.00374500
H        2.41704700       1.21812500       0.13367800
H        2.10347500      -1.51933700       0.08934700
