17
Properties=species:S:1:pos:R:3 pbc="F F F"
C        1.63919700      -0.98399900       0.53364700
C        1.00736900       0.08067200      -0.38797600
C       -0.53537000       0.06053500      -0.33958600
C       -1.11619700       0.49443200       1.01124400
O       -2.53439700       0.53377800       0.97119300
N        1.44801900      -0.08357100      -1.78888500
H        2.72485900      -0.94880200       0.46749000
H        1.32009100      -1.98505600       0.25022100
H        1.36363400      -0.82612000       1.57409500
H        1.35320100       1.07595300      -0.05032500
H       -0.91608100       0.72768400      -1.12128500
H       -0.89992400      -0.94095500      -0.59083200
H       -0.71549500       1.49232700       1.29462300
H       -0.83313800      -0.20579900       1.81089500
H       -2.82353300       1.05549000       0.21136100
H        1.13185400      -0.97886200      -2.15467700
H        2.46358500      -0.06092900      -1.84288700
