17
Properties=species:S:1:pos:R:3 pbc="F F F"
C       -1.96365200       1.08258800      -0.10623600
C       -0.45003300       1.16893000      -0.25422400
C        0.21802400      -0.16237700      -0.70592600
C        0.04495300      -1.30621500       0.31626100
O        0.63419800      -0.98930500       1.56940200
N        1.65933500       0.01472300      -0.95776900
H       -2.38407100       2.05825800       0.12855700
H       -2.24964200       0.39791300       0.69004700
H       -2.42632500       0.73230800      -1.02692800
H       -0.00547000       1.50534700       0.68985200
H       -0.20586200       1.94079500      -0.99177300
H       -0.26899300      -0.47657400      -1.65088000
H       -1.03081600      -1.54493900       0.45066600
H        0.53985100      -2.21480600      -0.05382900
H        0.23762000      -0.17887300       1.91508900
H        2.16441400      -0.00341100      -0.07370400
H        1.84461200       0.89780800      -1.42718000
