21
Properties=species:S:1:pos:R:3 pbc="F F F"
C        0.93352700       0.76051300      -1.57165800
C        0.16754400      -0.44364000      -1.01619200
C       -1.33812100      -0.27613800      -1.03653600
C       -2.01893000       0.75555200      -1.53632800
C        0.65679300      -0.85057200       0.39810600
C        0.38801500       0.19930300       1.48258600
C        0.83725300      -0.26452400       2.86278900
H        2.00588800       0.57993800      -1.53117000
H        0.72430700       1.66476900      -1.00471600
H        0.66360700       0.94578800      -2.60910400
H        0.39208900      -1.30564400      -1.67273400
H       -1.89421200      -1.11091600      -0.60566200
H       -1.52482200       1.61378700      -1.97506200
H       -3.10207100       0.76839200      -1.51629800
H        1.73058900      -1.06360700       0.35491600
H        0.16798400      -1.79019700       0.67996600
H       -0.68094300       0.43384200       1.50425200
H        0.90315300       1.13107800       1.22875100
H        0.31429500      -1.17106000       3.16148900
H        0.63920400       0.49873600       3.61243900
H        1.90444400      -0.47787000       2.87632700
