14
Properties=species:S:1:pos:R:3 pbc="F F F"
C       -0.49795300      -1.53164900      -1.68873600
C       -0.94535700      -0.53298600      -0.92751800
C       -0.09646200       0.50270400      -0.22287900
C       -0.45646200       0.54936300       1.27977800
O        0.34787700       0.66148800       2.16483300
C        1.41002900       0.35854800      -0.43405900
H       -1.18811500      -2.22408700      -2.15451600
H        0.55844800      -1.68671800      -1.86914700
H       -2.02062600      -0.42170200      -0.77468500
H       -0.41241600       1.49050100      -0.61245700
H       -1.57061200       0.49906000       1.49858800
H        1.76229300      -0.60533500      -0.07493800
H        1.93822500       1.13317200       0.11635100
H        1.66701500       0.44731900      -1.48737000
