19
Properties=species:S:1:pos:R:3 pbc="F F F"
C       -2.09751400      -0.00247500       0.93454800
C       -0.58331900      -0.00018800       0.77270200
C        0.03481400      -1.01245600      -0.22396500
C        1.53775900      -0.77204200      -0.00427200
C        1.53448700       0.77820400      -0.00594300
C        0.03066100       1.01168300      -0.22691000
C       -0.27928700      -0.00267800      -1.33874600
H       -2.42269900      -0.88028800       1.49183200
H       -2.61928100      -0.00524500      -0.01970000
H       -2.42518400       0.87664300       1.48833400
H       -0.11765900       0.00219000       1.77085600
H       -0.30616500      -2.05563200      -0.27928400
H        2.15290400      -1.19078200      -0.80668600
H        1.89872800      -1.19027500       0.94056800
H        2.14857600       1.19803700      -0.80858800
H        1.89277700       1.19984300       0.93842900
H       -0.31481600       2.05322000      -0.28517900
H        0.37019400      -0.00265900      -2.21918000
H       -1.32298900      -0.00534300      -1.65588900
