14
Properties=species:S:1:pos:R:3 pbc="F F F"
C       -1.08503600      -0.88281500      -1.59736900
N        0.16939200      -1.36299800      -1.03541400
C        0.82248900      -0.62638300      -0.20036700
N        0.47889300       0.68976400       0.20539700
C       -0.69450400       0.96948400       1.02302500
C        0.68419500       1.12684700       1.57634900
H       -1.19400300      -1.25378400      -2.62231800
H       -1.16371700       0.21262300      -1.61610300
H       -1.93342900      -1.27520200      -1.02215600
H        1.79867400      -0.98647100       0.17428300
H       -1.29559000       0.11876400       1.34965700
H       -1.26757800       1.85672300       0.74386200
H        1.04982600       0.38948400       2.29568600
H        1.10495800       2.12770100       1.69737100
