16
Properties=species:S:1:pos:R:3 pbc="F F F"
C       -2.50495600      -0.99832800      -0.09086100
O       -1.09601200      -1.02464100      -0.01551500
C       -0.52260700       0.23773600       0.31600900
C        0.98665900       0.10469500       0.37285900
C        1.81768300       0.36299100      -0.84724800
C        1.84671900       1.32920300       0.29398500
H       -2.85446100      -2.00644000      -0.33430600
H       -2.85640100      -0.29922700      -0.87278000
H       -2.95581400      -0.68387600       0.86903000
H       -0.92588400       0.58321300       1.29605900
H       -0.82406500       1.00296700      -0.43226000
H        1.34189200      -0.68741400       1.03334600
H        1.30764600       0.67033200      -1.75466300
H        2.69319800      -0.25682500      -1.01126100
H        1.35926400       2.28975900       0.15599600
H        2.74172900       1.36686000       0.90650100
