19
Properties=species:S:1:pos:R:3 pbc="F F F"
C       -0.48095200       0.27383900      -2.32596500
C       -0.67497300      -0.70370300      -1.16663700
C       -0.19045200      -0.15039600       0.16509700
C       -1.10596000       0.26204700       1.07568600
C       -0.85689900       0.82595500       2.43792500
C        1.25629000      -0.08232100       0.40992600
C        2.21348000      -0.57630100      -0.39032600
H       -0.81178500      -0.17110900      -3.26250600
H        0.56434700       0.55263700      -2.43495100
H       -1.05431700       1.18436400      -2.16612800
H       -0.14818500      -1.63809400      -1.39179700
H       -1.73743100      -0.95690500      -1.08829200
H       -2.15970300       0.17039500       0.80893300
H        0.19808200       0.96984500       2.65402800
H       -1.26918900       0.16798400       3.20644700
H       -1.36012000       1.78811700       2.55029900
H        1.56884900       0.40957300       1.33068600
H        1.98730000      -1.08922300      -1.31711600
H        3.25894500      -0.48229800      -0.12383600
