12
Properties=species:S:1:pos:R:3 pbc="F F F"
C       -1.65595200       0.54782700       0.32934100
C       -0.11813400       0.48408800       0.29058900
C        0.38878800      -0.71241200       0.99212000
C        0.79221300      -1.67817000       1.59409200
C        0.38852200       0.54012100      -1.09539700
C        0.79188900       0.61867600      -2.23074100
H       -2.00942500       0.54936800       1.35801400
H       -2.09434100      -0.30678400      -0.17970000
H       -2.01039500       1.45343100      -0.15791400
H        0.27796400       1.37105400       0.82259500
H        1.15726400      -2.53517500       2.10508400
H        1.15497200       0.66732400      -3.22810300
