19
Properties=species:S:1:pos:R:3 pbc="F F F"
C       -1.43980400       1.00079500      -1.22564600
C       -2.53394200       0.21049800      -0.57779500
C       -1.15108900      -0.35946700      -0.66841700
C       -0.30428700      -0.52156900       0.58903000
C        1.18425200      -0.64834400       0.28486900
C        2.05328800       0.56838600       0.19362100
C        2.19840700      -0.36895500       1.35195700
H       -1.05928400       1.86420800      -0.68964900
H       -1.46881600       1.11929000      -2.30423700
H       -3.30571900      -0.20828800      -1.21585100
H       -2.88777100       0.54279800       0.39300100
H       -1.01250600      -1.15297300      -1.40552900
H       -0.63720600      -1.41611400       1.13418300
H       -0.47236900       0.32771700       1.25823100
H        1.43177700      -1.45894900      -0.40325900
H        1.60013400       1.53569600       0.38442700
H        2.84299500       0.58189500      -0.55093200
H        1.84193800      -0.03074400       2.31969900
H        3.08587700      -0.99260000       1.39420000
