18
Properties=species:S:1:pos:R:3 pbc="F F F"
C        0.48672400      -1.03997800       1.06660800
C        0.10976300       0.10765400       0.12075800
N       -1.35025800       0.36128600       0.13628700
C       -1.85120800       0.94067300       1.37983600
C        0.53936400      -0.19538800      -1.32834800
N        1.99453300      -0.31355500      -1.43651100
H        1.54801600      -1.26088100       0.98454400
H       -0.06737600      -1.94376300       0.82186600
H        0.27334500      -0.78443000       2.10260200
H        0.66001800       1.02189000       0.45585100
H       -1.59081000       0.97817500      -0.64391400
H       -1.76395600       0.22605200       2.20267400
H       -2.90725700       1.19222300       1.26077300
H       -1.31328100       1.85940100       1.67798800
H        0.14011700       0.59950900      -1.99676800
H        0.08364400      -1.13646400      -1.66593400
H        2.44992000       0.54472700      -1.13582600
H        2.26983800      -0.50831700      -2.39540400
