17
Properties=species:S:1:pos:R:3 pbc="F F F"
C       -3.33618700       1.26879200       0.00100500
C       -1.84492900       1.22138900      -0.10298300
C       -1.07973800       0.27773100       0.45962800
C        0.42219400       0.24533800       0.36655300
C        0.94206400      -1.08979200      -0.20285000
C        2.40269400      -1.14305100      -0.26458100
C        3.60895300      -1.18609800      -0.31834600
H       -3.66342900       2.20110300       0.46433800
H       -3.72264200       0.44042000       0.59023500
H       -3.79611500       1.22978800      -0.98789800
H       -1.37446200       2.01928900      -0.67810200
H       -1.54969600      -0.52233000       1.03263200
H        0.85378200       0.39019800       1.36555900
H        0.77938600       1.07378500      -0.25224400
H        0.53632200      -1.24858800      -1.21005100
H        0.57742400      -1.92218100       0.41347600
H        4.66912000      -1.22733800      -0.36850500
