15
Properties=species:S:1:pos:R:3 pbc="F F F"
N       -0.35038200      -1.37609900       1.38873900
C       -0.70690100       0.04422300       1.33873500
C       -0.06829300       0.74806100       0.11392900
C       -0.56267500       0.17012300      -1.19884600
C        0.20683300      -0.08170100      -2.25747100
O        1.35584000       0.71272000       0.20347200
H       -0.79386600      -1.82593600       2.18582400
H        0.65676000      -1.48290000       1.48513300
H       -0.39966600       0.57985500       2.25937800
H       -1.80114300       0.13032700       1.27553200
H       -0.35652300       1.81964100       0.15623400
H       -1.63301300      -0.03211400      -1.25528800
H        1.27214500       0.11899600      -2.24000100
H       -0.21070600      -0.48355200      -3.17258100
H        1.65818100      -0.17761700      -0.02125300
