17
Properties=species:S:1:pos:R:3 pbc="F F F"
C       -1.20655800       1.80616400       0.46935400
C       -1.45619300       0.76073300      -0.61115700
N       -0.77172500      -0.51363800      -0.33429300
C        0.68156500      -0.44922300      -0.42675400
C        1.49352800      -0.31154200       0.82718800
C        1.47099000      -1.61351900       0.08198400
H       -1.76046900       2.71750500       0.25346200
H       -0.15102500       2.06116400       0.53144200
H       -1.52027900       1.44179200       1.44501800
H       -1.15641400       1.17718100      -1.59753300
H       -2.53333500       0.55116800      -0.67882800
H       -1.12753300      -1.22860400      -0.97486200
H        1.08186400       0.05932400      -1.32287100
H        0.96637000      -0.27288000       1.77376800
H        2.40611000       0.27544800       0.79009900
H        0.92949300      -2.43775600       0.53366500
H        2.36730400      -1.90455400      -0.45699300
