16
Properties=species:S:1:pos:R:3 pbc="F F F"
C       -0.49296100      -2.44880500       0.37373100
C       -1.55868700      -1.41947900       0.02270900
C       -1.06312500      -0.00424200      -0.14988700
C        0.21961800       0.38706000      -0.04834600
O        0.57628800       1.69330200      -0.23344400
C        1.94561800       1.99740100      -0.06124100
H       -0.94073000      -3.43455700       0.48324400
H        0.00255900      -2.20351900       1.31117600
H        0.26905500      -2.51477700      -0.40074000
H       -2.33739500      -1.43428500       0.79862100
H       -2.07051000      -1.73597100      -0.89771400
H       -1.81863200       0.74415800      -0.37680600
H        1.04122400      -0.30548000       0.17758100
H        2.09726300       3.04562800      -0.33456000
H        2.58303800       1.36565200      -0.70121600
H        2.26104500       1.85512400       0.98616600
