13
Properties=species:S:1:pos:R:3 pbc="F F F"
C       -1.07680700      -0.55963300       1.31816700
C        0.39833200      -0.63390800       1.09377100
C        1.06733600      -0.25667700      -0.01321300
C        0.52265200       0.33128900      -1.23968300
C       -0.55131000       1.12723900      -1.34335200
H       -1.40867900      -1.38850900       1.94230400
H       -1.62958800      -0.58650500       0.38111400
H       -1.35303900       0.36140200       1.83768300
H        0.97754700      -1.06616600       1.91016100
H        2.14230400      -0.43987500      -0.03507500
H        1.09372200       0.11463700      -2.14436500
H       -1.12744800       1.43448800      -0.48030400
H       -0.85603300       1.52066500      -2.30566000
