17
Properties=species:S:1:pos:R:3 pbc="F F F"
C       -1.81534500      -1.37572000      -0.00447500
C       -0.34787100      -1.10472900      -0.00065300
C        0.25946500       0.10558700       0.11928100
C       -0.46422200       1.38837500       0.25201700
C       -1.60734000       1.73127900      -0.35515900
C        1.73183300       0.22124700       0.19390900
C        2.62981900      -0.72022600      -0.12688700
H       -2.02562400      -2.33143900       0.47508700
H       -2.20706200      -1.44106300      -1.02360500
H       -2.37643900      -0.59803100       0.51106800
H        0.28929300      -1.98654100      -0.06571900
H        0.03136400       2.13373600       0.87810500
H       -2.11703200       1.07012200      -1.04445400
H       -2.04220300       2.71155100      -0.20074500
H        2.10126100       1.19234900       0.52672500
H        2.33713000      -1.69958800      -0.48744900
H        3.69127300      -0.52597200      -0.03722000
