15
Properties=species:S:1:pos:R:3 pbc="F F F"
C       -1.37252500      -0.19357700       0.34080200
C       -0.06980600       0.13456100       0.40991800
C        0.55882800       0.72325300       1.60928200
C       -0.05263000       1.00483600       2.76721300
C        0.88213100      -0.07347500      -0.75777100
C        0.28431100      -0.65447900      -1.95873400
C       -0.17244900      -1.13368200      -2.96926200
H       -2.03689800      -0.03764600       1.18219200
H       -1.79155900      -0.62244400      -0.56049400
H        1.62391400       0.94155900       1.51927400
H       -1.10802200       0.81200800       2.92025800
H        0.49682300       1.43824200       3.59366100
H        1.71599200      -0.71327400      -0.43113800
H        1.34246400       0.89087800      -1.02146900
H       -0.58987600      -1.55393900      -3.85098000
