15
Properties=species:S:1:pos:R:3 pbc="F F F"
C       -0.26666100       2.09205700      -0.28482700
C       -0.06217100       0.89945700       0.64363400
C        0.50740600      -0.31570600      -0.07734400
C        0.32163100      -1.68762200       0.49484900
C       -0.40431200      -1.29312100      -0.75377300
H       -0.66707600       2.94440200       0.26038200
H       -0.96169000       1.84890100      -1.08584800
H        0.67287300       2.39771100      -0.74151500
H       -1.01479600       0.63152100       1.11179100
H        0.61179100       1.18940100       1.45921500
H        1.46070000      -0.13327300      -0.57665200
H       -0.26040200      -1.78774500       1.40541100
H        1.13785700      -2.39734000       0.40442100
H       -1.47438200      -1.12735300      -0.68253000
H       -0.08023200      -1.73661700      -1.68991100
