19
Properties=species:S:1:pos:R:3 pbc="F F F"
C       -1.18020400       0.48276200       1.78883900
C       -1.52112400       0.97150800       0.38778000
C       -0.92629900       0.10348500      -0.73790200
C        0.59084500       0.13029800      -0.77797700
C        1.23662600       1.14661400      -1.38562800
C        1.37465700      -0.94940300      -0.15801700
C        0.89255200      -2.04042000       0.45348000
H       -1.63732700       1.12418200       2.53980800
H       -0.10557500       0.48386100       1.95372200
H       -1.54160600      -0.53110700       1.94958200
H       -1.17206900       2.00222900       0.26611400
H       -2.61009600       0.99770000       0.26791800
H       -1.31316300       0.47432300      -1.69311100
H       -1.28572600      -0.92426700      -0.63334700
H        0.69476000       1.95599300      -1.85925700
H        2.31924000       1.18382200      -1.41745900
H        2.45683700      -0.82851000      -0.22465100
H       -0.17014500      -2.22681800       0.55346400
H        1.56255200      -2.78047700       0.87377000
