14
Properties=species:S:1:pos:R:3 pbc="F F F"
C        0.92729000      -0.85286900       2.15812900
C        0.17403300      -0.83020200       1.05816900
C       -0.78112200       0.27611500       0.70854400
C       -0.62262200       0.78894500      -0.72217800
C        0.65126600       0.70987500      -1.46723800
O       -0.42332500      -0.18077000      -1.74800000
H        1.58487400      -1.68652000       2.37131000
H        0.90504500      -0.04225300       2.87767600
H        0.21600500      -1.65858100       0.35213900
H       -0.67296900       1.11177500       1.41031100
H       -1.81035100      -0.09193900       0.82893400
H       -1.33335700       1.58665900      -1.00088100
H        1.52989700       0.24359300      -1.00477900
H        0.87439200       1.43224600      -2.26327000
