7
Properties=species:S:1:pos:R:3 pbc="F F F"
C       -1.23914900       0.00000600       0.00001000
C        0.21466400      -0.00000600      -0.00000100
C        1.42243700      -0.00000800      -0.00001100
H       -1.62402700       0.59470500      -0.82956700
H       -1.62401800       0.42112100       0.92981000
H       -1.62404800      -1.01576600      -0.10021300
H        2.48438400      -0.00001000      -0.00001500
