21
Properties=species:S:1:pos:R:3 pbc="F F F"
C        0.93696400       1.78549100      -1.16623800
C        0.22144300       0.57993400      -0.53237600
C       -1.23727900       0.90790700      -0.28536500
C       -2.26070900       0.30761300      -0.89264600
C        0.93221600       0.16563000       0.77997900
C        0.37580000      -1.11400500       1.41954400
C        0.68949000      -2.38113400       0.63277000
H        1.98146300       1.55264900      -1.36555900
H        0.90671700       2.65046400      -0.50608500
H        0.46728400       2.06575700      -2.10644700
H        0.27533100      -0.25970800      -1.24171200
H       -1.43418500       1.70236200       0.43610500
H       -2.10390400      -0.48437000      -1.61618700
H       -3.28534600       0.59088500      -0.68323800
H        0.85036200       0.98747000       1.50028900
H        2.00151400       0.03798200       0.57854800
H       -0.70775500      -1.01977900       1.54227500
H        0.79273600      -1.21007800       2.42824700
H        0.23915800      -2.35475000      -0.35711500
H        0.30586700      -3.25862900       1.14917200
H        1.76320600      -2.50886400       0.50769700
