14
Properties=species:S:1:pos:R:3 pbc="F F F"
C       -0.31780900      -0.76484500       1.75759900
C       -0.17158300      -0.74405800       0.22460900
C       -0.04876500       0.69129300      -0.31385000
C        1.21199500       1.45903700      -0.21318400
O        0.80244800       0.88807500      -1.44525600
O       -1.28934500      -1.40379700      -0.37833300
H       -0.44128600      -1.78431600       2.11440700
H       -1.18787900      -0.19225600       2.07751200
H        0.55913000      -0.33963600       2.24278400
H        0.72322900      -1.31895200      -0.06828600
H       -0.99387700       1.26002500      -0.36657300
H        2.10111400       1.00170900       0.24189500
H        1.19167000       2.55608600      -0.17536300
H       -2.09995400      -0.90544400      -0.20870600
