13
Properties=species:S:1:pos:R:3 pbc="F F F"
O       -1.22148000       0.00018000       0.65120000
C       -0.67120400      -1.18367700       0.05179700
C        0.63723200      -0.74511400      -0.57704300
C        0.63724200       0.74487200      -0.57735800
C       -0.67134200       1.18368000       0.05099300
N        1.52305500       0.00006600       0.32482500
H       -1.37062600      -1.59346500      -0.70910300
H       -0.55877000      -1.95046000       0.83808000
H        1.12186900      -1.34697000      -1.35093200
H        1.12195300       1.34639000      -1.35146200
H       -1.37068100       1.59268700      -0.71041800
H       -0.55926500       1.95112400       0.83667700
H        1.13441200       0.00021400       1.27345200
