13
Properties=species:S:1:pos:R:3 pbc="F F F"
C       -2.03331600      -0.01320600      -0.77798000
N       -0.57300100      -0.01799100      -0.83136600
C        0.14066000       1.08163300      -0.10586600
C        0.99266700       0.01102700       0.57582300
O        1.94725400       0.02597600       1.31621600
C        0.13556300      -1.08607600      -0.05548700
H       -2.41713600       0.85993000      -1.31132400
H       -2.42997100       0.01435900       0.25268100
H       -2.42118600      -0.91090200      -1.26557400
H       -0.49911700       1.65096200       0.58664400
H        0.65103900       1.79559100      -0.76916100
H       -0.50674900      -1.61976300       0.66256800
H        0.64265400      -1.83231000      -0.68493700
