16
Properties=species:S:1:pos:R:3 pbc="F F F"
C       -0.22930400       1.34507100       1.84804000
C       -0.86958700       1.15404700       0.47534000
C       -0.40733500      -0.12348000      -0.22524200
N       -1.18891100      -1.13732700      -0.47479400
N        0.91220800      -0.12561100      -0.61711300
C        1.54582400      -1.27673400      -1.22367700
H       -0.58460800       2.26150700       2.31481200
H        0.85533200       1.40736900       1.77378900
H       -0.47109300       0.51568300       2.50847400
H       -0.63695300       2.01985100      -0.15569900
H       -1.95673700       1.12791900       0.58268000
H       -2.14176800      -0.98173200      -0.14219400
H        1.50551400       0.64457500      -0.32824900
H        0.76838900      -1.96504900      -1.55029300
H        2.20800400      -1.80303800      -0.51852900
H        2.15325700      -0.97994300      -2.08820900
