18
Properties=species:S:1:pos:R:3 pbc="F F F"
N       -0.89030400       1.78992500      -1.00346300
C       -1.39907900       0.94806200       0.07900400
C       -0.80892200      -0.46492600       0.02023700
N        0.66643900      -0.49060600      -0.01801400
C        1.29954500       0.09170800       1.16884200
C        1.17721200      -1.83291100      -0.31040600
H       -1.37502500       2.68276900      -1.02870000
H       -0.99939500       1.32910900      -1.90269900
H       -2.50759400       0.85772900       0.04956900
H       -1.16543600       1.42633700       1.04221100
H       -1.17389900      -0.96650900      -0.89004300
H       -1.20789700      -1.05455100       0.87623700
H        1.01531200       1.14076900       1.27576800
H        2.38650600       0.04266100       1.06320800
H        1.02919100      -0.43167800       2.10587900
H        0.75339300      -2.19729100      -1.25084000
H        0.93387500      -2.57340800       0.47517400
H        2.26548900      -1.80277200      -0.41149100
