15
Properties=species:S:1:pos:R:3 pbc="F F F"
C       -1.97198100       1.55135700       0.98360300
C       -2.36675600       0.66724100       0.06764200
C       -1.46517400      -0.27370500      -0.69276700
C        0.00434700      -0.01549600      -0.52513900
C        0.87814900      -0.93821400      -0.08332300
C        2.28351400      -0.70166900       0.05158700
C        3.47975600      -0.55085300       0.18208700
H       -2.68817300       2.18508900       1.49215900
H       -0.92845500       1.66334000       1.25241000
H       -3.42818400       0.57991600      -0.16826800
H       -1.72357000      -0.20241300      -1.76115300
H       -1.70255400      -1.30701000      -0.40464200
H        0.36313800       0.97552200      -0.79845500
H        0.53195000      -1.93480800       0.19757500
H        4.52471100      -0.39160200       0.28823600
