15
Properties=species:S:1:pos:R:3 pbc="F F F"
N       -1.73837900      -0.35565500       1.42570000
C       -0.27782800      -0.27323200       1.35548900
C        0.21787000      -0.48706300      -0.09802000
C       -0.27564800       0.60362900      -1.02755300
C        0.47163900       1.22204800      -1.94195200
O        1.64058700      -0.59829300      -0.11366000
H       -2.06299600      -0.18279400       2.37373700
H       -2.06239600      -1.27623900       1.13799000
H        0.21485100      -1.01869400       2.01068500
H        0.03590500       0.71558900       1.71815800
H       -0.17568900      -1.46160800      -0.45522400
H       -1.32529600       0.87498300      -0.91565700
H        1.51479600       0.96385600      -2.08685200
H        0.05559100       1.99068300      -2.58195700
H        2.03299200       0.27786200       0.00071700
