17
Properties=species:S:1:pos:R:3 pbc="F F F"
N       -1.36240400       1.44483400      -0.33130300
C        0.08277300       1.30942900      -0.15186500
C        0.55254400      -0.14348200      -0.38960200
C        0.01851700      -1.12245400       0.68288000
O       -1.38814500      -1.30366400       0.59905400
C        2.08393900      -0.20858800      -0.44688300
H       -1.65793900       2.39667800      -0.12966100
H       -1.85278400       0.80702700       0.29461200
H        0.41072900       1.63538600       0.85904400
H        0.59137800       1.97462800      -0.86690400
H        0.16064100      -0.47070700      -1.36659300
H        0.52745900      -2.10453800       0.57091400
H        0.24326800      -0.75574900       1.69586600
H       -1.63252900      -1.50247400      -0.31481300
H        2.52679000       0.11269500       0.49477000
H        2.47264100       0.43622200      -1.23264400
H        2.42569900      -1.22312200      -0.64509300
