18
Properties=species:S:1:pos:R:3 pbc="F F F"
C        2.02645800      -1.17048000       0.15596500
C        1.67565100      -1.20856900       1.61067400
C        1.01556200      -0.21196400       0.70726100
C       -0.46038500      -0.35914200       0.35218900
C       -0.82823700       0.37835400      -0.93064100
C       -2.21892300       0.86269600      -1.15849300
N       -1.14005100       1.81004000      -0.87050900
H        1.67248100      -1.98462100      -0.46847900
H        3.00242600      -0.78490900      -0.12063800
H        2.41337200      -0.84887800       2.32071200
H        1.08488600      -2.04739700       1.96438400
H        1.34896900       0.82157800       0.81164700
H       -1.07888200       0.01924100       1.17601500
H       -0.70248600      -1.42378300       0.24752200
H       -0.24032900       0.09212100      -1.81077100
H       -2.96629700       0.70538100      -0.37786800
H       -2.62172800       0.90934500      -2.17143200
H       -1.19281400       2.12627300       0.10074000
