17
Properties=species:S:1:pos:R:3 pbc="F F F"
C       -0.01232000      -2.19365100       0.87406500
N       -0.26154200      -0.83326500       1.34804100
C        0.55844800       0.19999900       0.69220900
C        0.11170400       0.47414500      -0.76313200
O        0.98656600       1.44791200      -1.35108300
C       -1.34302500       0.95082700      -0.84912400
H       -0.59379500      -2.89608600       1.47454600
H        1.05110800      -2.48525100       0.93746500
H       -0.32269600      -2.30253100      -0.16865200
H       -0.10342900      -0.79508400       2.35747300
H        1.63393000      -0.06833300       0.69358600
H        0.46405800       1.12387100       1.28111200
H        0.23164700      -0.44508800      -1.36504200
H        0.81919300       2.31370700      -0.95498100
H       -1.48251900       1.88164300      -0.29994600
H       -2.01510000       0.20883400      -0.42447900
H       -1.63296700       1.12595900      -1.88280200
