12
Properties=species:S:1:pos:R:3 pbc="F F F"
N       -2.51097300       0.17187200       0.12084600
N       -1.12959000       0.19772000      -0.03290400
C       -0.44864500      -0.74326600       0.53602800
C        1.06104900      -0.77605600       0.48457700
C        1.66097100       0.29740200      -0.30646800
C        2.19311300       1.16773700      -0.95294200
H       -2.98371100       0.59700900      -0.67652900
H       -2.88383100      -0.75687300       0.33695300
H       -0.93952400      -1.56861300       1.08946600
H        1.39435200      -1.74658300       0.08312100
H        1.46573700      -0.73446400       1.50898100
H        2.63198700       1.94748100      -1.52475800
