17
Properties=species:S:1:pos:R:3 pbc="F F F"
C       -1.98555200       1.68730000      -0.69518100
C       -1.12583700       1.13361800       0.16038400
C       -0.70013400      -0.31081400       0.12635000
N        0.73454800      -0.47013100       0.44334400
C        1.10315500      -1.87399500       0.65049700
C        1.60460000       0.19213800      -0.53542900
H       -2.28155100       2.72524700      -0.60360200
H       -2.41678200       1.11963900      -1.51223700
H       -0.71201400       1.73712800       0.96884500
H       -0.96470100      -0.76612800      -0.85195100
H       -1.27368500      -0.86864800       0.88712400
H        0.48952400      -2.30685900       1.44584100
H        2.15302000      -1.93984600       0.94861900
H        0.97038300      -2.49604800      -0.25417300
H        1.33930400       1.24926300      -0.61196100
H        1.53011600      -0.24992300      -1.54582300
H        2.64715600       0.11760800      -0.21382100
