14
Properties=species:S:1:pos:R:3 pbc="F F F"
C       -2.83026400       1.06181500      -0.38217900
C       -1.48741800       1.03113100      -0.40101100
O       -0.78765400      -0.04051200       0.03681900
C        0.57451700       0.00634700      -0.01679900
C        1.32687000      -1.02615000       0.40342400
C        2.82350800      -1.01654200       0.36237800
H       -3.35798500       1.93298800      -0.73961700
H       -3.40238300       0.22234200      -0.01274300
H       -0.88393000       1.87384800      -0.77194300
H        1.00599900       0.93341100      -0.42159400
H        0.83848400      -1.91540400       0.79341300
H        3.20292700      -0.08098200      -0.04390100
H        3.20742900      -1.83276500      -0.25301500
H        3.24741500      -1.14894900       1.35996500
