17
Properties=species:S:1:pos:R:3 pbc="F F F"
C       -1.72602400       0.25525700      -1.37581000
C       -0.94579100      -1.02794700      -1.12059500
C        0.44586000      -0.78985900      -0.51436400
C        0.40024000      -0.18972000       0.88586400
C        1.59470100       0.49469200       1.45675300
N        0.41695100       1.26660100       1.05536300
H       -2.70319900       0.03294800      -1.79981000
H       -1.19690900       0.90095900      -2.07417700
H       -1.87670800       0.81149900      -0.45397300
H       -0.83282100      -1.57697300      -2.06176900
H       -1.52238900      -1.67734100      -0.45301700
H        1.02971700      -0.13809900      -1.17335300
H        0.97879600      -1.74890900      -0.47788800
H       -0.26750700      -0.70734300       1.58544100
H        2.49018600       0.59422100       0.83971800
H        1.78418800       0.45759200       2.53068200
H        0.58407300       1.73069600       0.15952000
