18
Properties=species:S:1:pos:R:3 pbc="F F F"
C       -1.61082300       0.00078900       0.07541400
C       -0.79366500      -1.29375200      -0.14019100
C        0.71073800      -1.02426100       0.06253300
C        1.19481400      -0.00104100      -0.97802400
C        0.71169900       1.02366100       0.06151700
C       -0.79245200       1.29434700      -0.14149500
N        0.91809800       0.00013100       1.12408200
H       -1.99723900       0.00148100       1.10021600
H       -2.49367800       0.00088300      -0.57088900
H       -0.96125300      -1.68985400      -1.14813100
H       -1.14542000      -2.06469200       0.55420500
H        1.28902800      -1.95855400       0.19031600
H        0.70962700      -0.00128800      -1.95763400
H        2.27960800      -0.00161200      -1.10458000
H        1.29087200       1.95753300       0.18838500
H       -0.95964600       1.68956700      -1.14984600
H       -1.14350400       2.06632700       0.55209800
H        0.18304900       0.00083100       1.83875600
