14
Properties=species:S:1:pos:R:3 pbc="F F F"
C       -2.55077800       0.82353100      -0.15364100
C       -1.02799300       0.86065700      -0.13927700
C       -0.41169200      -0.50104400       0.22844300
C        1.11993500      -0.48033300       0.20193100
O        1.82270100      -0.66140000       1.17592100
O        1.66604700      -0.24767300      -1.03193400
H       -2.95451400       1.79736500      -0.41965700
H       -2.94051200       0.55133100       0.82426500
H       -2.91815200       0.09644300      -0.87462300
H       -0.68604600       1.61511900       0.57463900
H       -0.65922600       1.17711500      -1.12262500
H       -0.77373900      -1.26510100      -0.46980700
H       -0.74710500      -0.79973800       1.22389500
H        0.99247600      -0.11681000      -1.71271500
