21
Properties=species:S:1:pos:R:3 pbc="F F F"
C       -2.27264600      -0.14665400      -1.45399500
C       -0.85930900      -0.66760600      -1.21227200
C       -0.38270800      -0.41616800       0.21337100
C        0.35854800       0.84557000       0.57325100
C        1.07557900      -0.48076100       0.59442900
C        2.16282300      -0.79606200      -0.41135900
C        0.05534000       1.57696000       1.86402500
H       -2.59068300      -0.34545500      -2.47554600
H       -2.32795900       0.92728400      -1.28813500
H       -2.98533000      -0.62279300      -0.78306200
H       -0.17275700      -0.19649200      -1.92273200
H       -0.83243000      -1.74378400      -1.42453200
H       -1.07055100      -0.78703900       0.97655200
H        0.60660200       1.49868100      -0.26530700
H        1.26874800      -0.89122800       1.58793400
H        1.98527900      -0.29964300      -1.36274100
H        2.22757800      -1.86812100      -0.59942900
H        3.13548900      -0.46898300      -0.04385800
H       -0.17560100       0.87842600       2.66582000
H       -0.79815100       2.24512600       1.74728800
H        0.90400100       2.18234800       2.18304400
