16
Properties=species:S:1:pos:R:3 pbc="F F F"
C       -3.00768500      -0.27396900      -0.03210500
C       -1.55017500      -0.26305800      -0.03084900
C       -0.34069400      -0.25307800      -0.02968600
C        1.13795000      -0.25163600      -0.02951600
C        1.69086600       0.55824600      -1.21300100
C        1.69087100       0.26244700       1.30923200
H       -3.39157700      -0.98632200       0.70034900
H       -3.39326100      -0.55702300      -1.01316500
H       -3.40429600       0.71231300       0.21540900
H        1.46952700      -1.29919500      -0.15237400
H        1.38662500       1.60046700      -1.15056400
H        1.33117100       0.15826200      -2.15805100
H        2.77859500       0.52459500      -1.22168600
H        1.38690500       1.29094100       1.48949200
H        2.77859100       0.22739500       1.31000700
H        1.33092400      -0.34514100       2.13613300
