16
Properties=species:S:1:pos:R:3 pbc="F F F"
C       -1.75772300       0.56642000       0.06879600
C       -0.31121200       0.45524600       0.57306000
C        0.40797800      -0.74920000      -0.05231600
N        0.91457200      -1.72820300       0.63536800
N        0.47022800      -0.77480300      -1.43526800
C        0.46803400       1.75635400       0.32393000
H       -2.30916200      -0.34840500       0.27289900
H       -1.78998900       0.74622700      -1.00420000
H       -2.27203800       1.38999000       0.56007300
H       -0.34295900       0.28626500       1.65924500
H        0.77870600      -1.61118400       1.64138600
H        0.31863800       0.08289500      -1.94715900
H        1.09036800      -1.45865800      -1.85043700
H        0.52308000       1.98836300      -0.73869400
H        1.48417400       1.67873100       0.70413400
H       -0.01688000       2.59389800       0.82123800
