14
Properties=species:S:1:pos:R:3 pbc="F F F"
C       -0.74529200      -1.02468600      -1.66653400
C        0.75472100      -0.86028000      -1.48054400
C        1.28815100      -0.19138600      -0.24474900
C        0.69907300       0.43775300       0.79189800
C       -0.73571600       0.69765100       1.06582200
O       -1.10384400       1.26078100       2.07656000
H       -0.93699900      -1.59560500      -2.57319400
H       -1.24702400      -0.06574700      -1.77272700
H       -1.19644100      -1.56336200      -0.83636600
H        1.16423800      -0.31744400      -2.34462200
H        1.22668000      -1.85105300      -1.53287800
H        2.37996900      -0.23821500      -0.20700200
H        1.36464100       0.82828700       1.56226100
H       -1.48993300       0.36257500       0.29668700
