16
Properties=species:S:1:pos:R:3 pbc="F F F"
C       -0.68477700      -0.36687800      -1.71704400
C       -0.73491100      -0.51003700      -0.20124600
O        0.25328700      -1.45104400       0.30261500
C        0.87094300      -0.44903200       1.13156500
C       -0.14629600       0.60893200       0.69115800
C        0.39645000       1.87345600       0.03392300
H       -0.97666900      -1.30140600      -2.19197800
H        0.31656100      -0.11785400      -2.06094000
H       -1.36624800       0.41211100      -2.05583600
H       -1.75618000      -0.82435900       0.10983100
H        1.92065700      -0.26247600       0.83636600
H        0.85609400      -0.72905400       2.20173300
H       -0.83537000       0.89322400       1.50016300
H        1.11737600       1.63968500      -0.74680200
H        0.89555400       2.50259600       0.76961500
H       -0.40652400       2.45724100      -0.41321100
