13
Properties=species:S:1:pos:R:3 pbc="F F F"
C       -2.14424700      -0.00209300      -0.00668600
C       -0.65063300       0.07226300      -0.00207800
C        0.19785200       1.17504400      -0.00005000
C        1.52869000       0.68528900       0.00438700
C        1.45854600      -0.70032300       0.00494800
N        0.13327700      -1.05055900       0.00100100
H       -2.57377500       0.99542600      -0.00795300
H       -2.52718200      -0.52971900       0.87024400
H       -2.52181000      -0.52960300      -0.88602100
H       -0.10999600       2.21058600      -0.00159900
H        2.43342700       1.27551200       0.00690600
H        2.24104400      -1.44838600       0.00783100
H       -0.21590500      -2.00098800       0.00046400
