16
Properties=species:S:1:pos:R:3 pbc="F F F"
N       -2.29521900      -0.01607500      -0.02853900
C       -0.96118100       0.00201100      -0.63662300
C        0.04661900       1.06114900      -0.10971400
N        0.81844400      -0.01880700       0.55294200
C        0.00361000      -1.07232000      -0.10057600
C        2.26299800      -0.04700600       0.35305200
H       -2.82076200       0.81518800      -0.28979500
H       -2.22242800      -0.04498500       0.98586200
H       -1.07492400       0.00313700      -1.73403600
H       -0.34484800       1.81821300       0.58991000
H        0.60486200       1.58586300      -0.90382200
H       -0.41934100      -1.80540800       0.60486400
H        0.54162100      -1.62689200      -0.88834500
H        2.71952100       0.83101200       0.81918100
H        2.55655000      -0.05447300      -0.71353100
H        2.68490000      -0.94048400       0.82205200
