15
Properties=species:S:1:pos:R:3 pbc="F F F"
N       -0.71081000       0.86624700       1.54347800
C       -1.02871400       0.74832400       0.13122300
C       -0.19194600       1.46497400      -0.87487200
C       -0.15508600      -0.04488200      -0.82291200
C        1.10170700      -0.75962800      -0.34346700
O        0.79491500      -2.01555900       0.25158800
H        0.26271400       1.12566700       1.67766700
H       -0.87676800      -0.01554700       2.02526900
H       -2.10614400       0.71286500      -0.06391100
H        0.68561200       1.99501900      -0.51678300
H       -0.68060000       1.93349100      -1.72395300
H       -0.68009600      -0.55336700      -1.63565000
H        1.80445800      -0.90999900      -1.19263000
H        1.63143900      -0.15951400       0.41102400
H        0.21997900      -2.52059900      -0.33791200
