21
Properties=species:S:1:pos:R:3 pbc="F F F"
C       -2.58331200      -1.53272900       0.39371700
C       -1.07057200      -1.38839400       0.50406000
C       -0.43742700      -0.83353300      -0.77808400
C        1.09059900      -0.71237500      -0.70385400
C        1.58836900       0.39889500       0.23527400
C        1.22360700       1.77893700      -0.23916800
C        0.64921500       2.71350500       0.51881000
H       -3.00432200      -1.92393400       1.31764800
H       -2.85496000      -2.21256000      -0.41163400
H       -3.05426600      -0.57287700       0.19090700
H       -0.62718400      -2.36323400       0.73604400
H       -0.83026100      -0.73349800       1.34772600
H       -0.87026900       0.14550200      -1.00643600
H       -0.69908400      -1.48914700      -1.61628400
H        1.48130300      -0.52369000      -1.71024200
H        1.51765700      -1.66861900      -0.38160500
H        2.68348500       0.32879500       0.29793300
H        1.21046200       0.23946300       1.24954800
H        1.47292800       2.00969200      -1.27585400
H        0.38535000       2.52038200       1.55211500
H        0.42628700       3.69788700       0.12560100
