15
Properties=species:S:1:pos:R:3 pbc="F F F"
N       -0.05485500       0.41513500       2.30869300
C       -0.74912400      -0.04932500       1.10191400
C        0.02183400       0.42040400      -0.15564100
C       -0.61454800      -0.07157700      -1.43463600
C        0.01475100      -0.80134400      -2.35420300
O        1.37262400      -0.00925400      -0.05774800
H       -0.48889800       0.03261700       3.14519900
H       -0.07535300       1.43087200       2.36992700
H       -1.79763500       0.30959400       1.05795900
H       -0.78930300      -1.14518200       1.12775300
H       -0.00420300       1.54270700      -0.16646400
H       -1.65461000       0.22158900      -1.58794400
H        1.04747000      -1.09384600      -2.20946500
H       -0.48585500      -1.11718800      -3.26215700
H        1.61390300      -0.00201800       0.88171900
