19
Properties=species:S:1:pos:R:3 pbc="F F F"
C       -0.61827900      -2.64531300      -0.60718600
C        0.33074800      -1.97641200       0.33403400
C        0.50456400      -0.65303200       0.51097600
C       -0.20637600       0.45203900      -0.16047700
C       -1.50445900       0.39838200      -0.51397900
C        0.60835200       1.71140300      -0.40788000
C        0.87864200       2.50803300       0.86785400
H       -0.17370900      -3.55485500      -1.01039800
H       -0.89410100      -1.99626000      -1.43569000
H       -1.53858900      -2.94047600      -0.09713500
H        0.96360700      -2.64854900       0.91446300
H        1.29555000      -0.34230700       1.19542300
H       -2.12156100      -0.46264900      -0.29495000
H       -1.98308300       1.24436400      -0.99297700
H        0.08232800       2.34991500      -1.12398400
H        1.56568800       1.44116700      -0.86870400
H       -0.05129800       2.83326600       1.32895000
H        1.47270400       3.39288900       0.64674300
H        1.42331000       1.91289900       1.59821500
