21
Properties=species:S:1:pos:R:3 pbc="F F F"
C       -1.72848500      -1.06698000      -2.36267000
C       -2.00245300      -1.37733500      -0.89595900
C       -1.44507100      -0.32697900       0.07540000
C        0.08590400      -0.30298800       0.14283200
C        0.60664700       0.73930700       1.14506800
C        2.10694600       0.74435700       1.24359600
C        2.87001600       1.82707500       1.09227700
H       -2.16917800      -1.82676000      -3.00482600
H       -0.66099000      -1.03494100      -2.56926100
H       -2.15104200      -0.10433200      -2.64359700
H       -1.58774700      -2.36014900      -0.64750500
H       -3.08468100      -1.45434600      -0.74500500
H       -1.84324300      -0.52579200       1.07704300
H       -1.81355200       0.66474700      -0.20838900
H        0.49851400      -0.09086600      -0.84809400
H        0.45681600      -1.29486100       0.42432500
H        0.18483400       0.51885900       2.13561800
H        0.24627000       1.73570300       0.87047500
H        2.57720300      -0.21606300       1.45882000
H        2.43780900       2.79678600       0.87394000
H        3.94796900       1.77326600       1.18320000
