16
Properties=species:S:1:pos:R:3 pbc="F F F"
C       -1.52976600       0.84616700       1.10114700
C       -0.02346200       0.70470000       1.10044900
C        0.81291300       1.36535600       0.05240400
C        0.70866300      -0.14081200       0.07755400
C       -0.01327600      -0.85289400      -1.00442900
C        0.31852200      -2.06832200      -1.45084300
H       -1.83188200       1.73339600       1.65742700
H       -2.00442300      -0.01406800       1.57206900
H       -1.92369400       0.93695300       0.09184200
H        0.41495700       0.67933000       2.10023300
H        1.75798400       1.81041100       0.34876300
H        0.30049400       1.88657900      -0.74990400
H        1.58616100      -0.66769500       0.45599000
H       -0.85691100      -0.33014900      -1.45515600
H        1.15355000      -2.61636000      -1.03018100
H       -0.23779400      -2.54356900      -2.24877300
