14
Properties=species:S:1:pos:R:3 pbc="F F F"
C       -1.47971900      -0.33229800       0.90244100
C       -0.07686400      -0.77516200       0.48505700
O        0.38819800      -1.83209300       0.87479700
C        0.73662600       0.12432900      -0.41908700
C        0.09264200       0.93208600      -1.51747200
C        0.64446800       1.62623600      -0.32530300
H       -1.95777200      -1.10667700       1.49464300
H       -2.10059800      -0.12340200       0.03280400
H       -1.43393500       0.57896500       1.49731000
H        1.72458300      -0.27478200      -0.64601100
H       -0.98630600       0.87805700      -1.62606800
H        0.63407300       1.01532900      -2.45403800
H       -0.05390300       2.04989600       0.38991400
H        1.56536200       2.18820900      -0.44074300
