21
Properties=species:S:1:pos:R:3 pbc="F F F"
C       -0.98159400       2.63033800      -0.87981000
C       -1.78609600       1.35099300      -1.05744400
C       -1.13250500       0.09202100      -0.54790000
C        0.06760000       0.00088000       0.03609500
C        0.67061600      -1.30466500       0.52328200
C        1.97803500      -1.61539000      -0.22498900
C        0.91167800      -1.26551600       2.04191300
H       -1.53247200       3.48257300      -1.27285500
H       -0.03077200       2.57576800      -1.40572000
H       -0.77327000       2.82327700       0.17030900
H       -2.02166600       1.21510200      -2.12203000
H       -2.76095600       1.46335700      -0.56310000
H       -1.72119900      -0.81715800      -0.68454300
H        0.67324300       0.89450200       0.18232400
H       -0.04355600      -2.11665000       0.31220800
H        2.72092100      -0.83949000      -0.05085000
H        1.80582800      -1.68135900      -1.29699900
H        2.39721500      -2.56246100       0.10966700
H        1.60124600      -0.46662300       2.30751000
H        1.33818100      -2.20515200       2.38814200
H       -0.01915300      -1.09765800       2.57906400
