15
Properties=species:S:1:pos:R:3 pbc="F F F"
C        1.30184200       0.70908400       0.78763600
C        0.73564300      -0.47118800      -0.02471700
C       -0.81216800      -0.48402700      -0.01484400
C       -1.40367400       0.70883600      -0.61842300
C       -1.90164000       1.68673600      -1.12433500
N        1.22287700      -1.77359300       0.47186300
H        2.38985500       0.70898800       0.75776900
H        0.99560700       0.64847900       1.83049700
H        0.95045200       1.65756400       0.38880200
H        1.07568200      -0.37074800      -1.07008600
H       -1.16821300      -1.37055500      -0.55369700
H       -1.17366000      -0.58159100       1.01754500
H       -2.34161000       2.54490200      -1.56900000
H        0.95362900      -1.90630900       1.44436700
H        2.23810700      -1.81222100       0.41886100
