14
Properties=species:S:1:pos:R:3 pbc="F F F"
C       -0.56249000       1.87829400      -1.23117100
C       -1.09392400       0.86718500      -0.53119600
C       -0.36418500      -0.20107800       0.17720700
C       -1.07639400      -1.17031400       0.79862600
C        1.11307600      -0.17109900       0.20295600
C        1.90856600      -1.17557600       0.59127500
H       -1.19987800       2.60758300      -1.71611600
H        0.50688500       2.01203700      -1.34487100
H       -2.18068800       0.79773700      -0.46909800
H       -2.15940700      -1.16901100       0.76826300
H       -0.59412200      -1.97185400       1.34377800
H        1.58002200       0.75406000      -0.13264900
H        1.51305900      -2.12910800       0.92252300
H        2.98623200      -1.06591700       0.58199000
