13
Properties=species:S:1:pos:R:3 pbc="F F F"
C       -2.30085000      -0.81203700      -1.51057200
C       -1.27384800      -0.07177200      -1.09301200
C       -0.46875500      -0.36706600       0.14764700
N        0.96520200      -0.19859000      -0.07894800
C        1.75644300       0.50433400       0.79951000
O        1.32916200       1.05990900       1.80402600
H       -2.86608600      -0.54257300      -2.39417100
H       -2.60892000      -1.70335100      -0.97547000
H       -0.98951400       0.81968400      -1.65183000
H       -0.69328100      -1.38559300       0.51359700
H       -0.73798900       0.33092000       0.95427400
H        1.38222000      -0.65537600      -0.88349700
H        2.84591500       0.52638900       0.49609000
