18
Properties=species:S:1:pos:R:3 pbc="F F F"
C       -0.16117300       1.96273300      -1.42226300
C       -0.50215900       1.42468500      -0.03318100
C        0.06116600       0.03934800       0.23262200
C       -0.77074000      -0.99601000       0.45307900
C       -0.38946400      -2.41961000       0.72366300
C        1.56319400      -0.07062900       0.22601100
H       -0.58908000       2.95317900      -1.56440900
H       -0.55430200       1.31257600      -2.20077500
H        0.91500900       2.03929700      -1.56193700
H       -1.58978700       1.40863900       0.09045000
H       -0.11217700       2.12214200       0.71978500
H       -1.84317500      -0.80314100       0.41915400
H        0.65919900      -2.52781700       0.98957200
H       -0.57419100      -3.04535300      -0.15288100
H       -0.99066400      -2.82956700       1.53566100
H        2.01650400       0.79927500       0.70030300
H        1.94460100      -0.11112900      -0.79614900
H        1.91311800      -0.96120300       0.74163800
