14
Properties=species:S:1:pos:R:3 pbc="F F F"
C       -2.07584300       0.96779800       0.67484800
N       -1.41921900       0.57834900      -0.36191100
N       -0.60495800      -0.52454400      -0.30425800
C        0.67732100      -0.39517800      -0.15249300
C        1.35439600       0.93815300       0.09173200
C        1.54434300      -1.62766000      -0.19124300
H       -2.77686300       1.79951400       0.56889600
H       -1.96583000       0.51596300       1.67288600
H        0.76193700       1.74954500      -0.32614800
H        2.34887000       0.95962200      -0.35041600
H        1.46878400       1.12661400       1.16082100
H        0.94868100      -2.52266900      -0.34902500
H        2.09943900      -1.74367000       0.74080500
H        2.28292300      -1.56024000      -0.99170000
