14
Properties=species:S:1:pos:R:3 pbc="F F F"
C       -2.58633000       0.87409100      -0.09881500
C       -1.07034000       0.85816600      -0.09408700
O       -0.61245800      -0.23510700       0.70762300
C        0.80945600      -0.32280700       0.79414400
C        1.42765600      -0.81575800      -0.51717800
O        2.58197900      -0.63575000      -0.81755600
H       -2.95957600       1.70796900      -0.68975900
H       -2.97482200       0.97241200       0.91235800
H       -2.98363800      -0.04652700      -0.52061500
H       -0.66464700       1.80991400       0.30998700
H       -0.67228300       0.76120900      -1.12726800
H        1.03819400      -1.04993900       1.59003600
H        1.24786300       0.64837400       1.09490700
H        0.73009100      -1.39870200      -1.19457200
