11
Properties=species:S:1:pos:R:3 pbc="F F F"
O       -1.77905500      -0.00059800       0.60405600
C       -0.63601600      -0.00024400       0.21503900
C        0.36166200       1.10600000      -0.12337500
C        1.38318100       0.00051100      -0.46773700
C        0.36236000      -1.10576200      -0.12375200
H        0.63866300       1.74954900       0.71513100
H        0.07232800       1.74754900      -0.95928000
H        2.27220600       0.00060400       0.16509100
H        1.70917000       0.00071500      -1.50918600
H        0.63964300      -1.74943600       0.71458400
H        0.07330400      -1.74722900      -0.95983500
