12
Properties=species:S:1:pos:R:3 pbc="F F F"
C       -0.80220300       0.10473900      -0.41229600
C       -1.37755800       0.72218100       0.78280100
C       -1.85489800       1.25136800       1.75787200
C        0.72876400       0.08904600      -0.39178100
C        1.49245700      -0.76814700      -1.32399900
O        1.35025800      -1.11456100       0.04717500
H       -1.15521500       0.65564400      -1.29742900
H       -1.17649600      -0.92084800      -0.51162100
H       -2.27244400       1.69488700       2.62800800
H        1.20922300       1.00545800      -0.01450900
H        2.50822600      -0.48733200      -1.63040200
H        0.96526800      -1.42644400      -2.02702500
