16
Properties=species:S:1:pos:R:3 pbc="F F F"
C       -2.58019000      -0.80521300      -0.18470100
C       -1.06158700      -0.86083100      -0.07880900
C       -0.43011800       0.53463000       0.06344300
C        1.08863400       0.47717000       0.16091900
N        1.76492400       0.71792800       1.24350400
N        1.75483300       0.18159700      -1.01832800
H       -2.99670200      -1.80521400      -0.28337700
H       -2.89116600      -0.22370400      -1.05020900
H       -3.01615700      -0.34536400       0.69960200
H       -0.65038500      -1.35896300      -0.96437600
H       -0.77618500      -1.47583900       0.77990500
H       -0.83149500       1.02523100       0.95407300
H       -0.71921800       1.15041400      -0.79541700
H        1.16271100       0.95311800       2.03477700
H        1.24073000      -0.24875400      -1.77399100
H        2.73913300      -0.04214200      -0.94233300
