19
Properties=species:S:1:pos:R:3 pbc="F F F"
C       -2.59454700      -1.23143000       0.40035300
C       -1.83361000      -0.80902000      -0.60982200
C       -1.21168400       0.55769000      -0.69789900
C        0.30459300       0.51232800      -0.95937200
C        1.08740900      -0.09364200       0.19760600
C        2.55684700       0.16745500       0.32980100
C        1.59803900       0.77625300       1.30528100
H       -3.02772100      -2.22428300       0.40142300
H       -2.80384900      -0.59744600       1.25417800
H       -1.64185300      -1.47710500      -1.45080400
H       -1.41778400       1.12299900       0.21591400
H       -1.68807400       1.10777100      -1.52140900
H        0.66585900       1.52777400      -1.15336400
H        0.49224300      -0.06446800      -1.87403900
H        0.75011400      -1.08852300       0.49151800
H        3.02709400       0.82716100      -0.39257000
H        3.19268800      -0.63988700       0.67920600
H        1.42409500       1.84545100       1.23759900
H        1.58490300       0.38275100       2.31665900
