14
Properties=species:S:1:pos:R:3 pbc="F F F"
O       -0.40600300      -1.67808300      -1.59051500
C       -1.39386500      -0.71441000      -1.29806300
C       -0.92405300       0.25665900      -0.25796900
C        0.28898200       0.21415600       0.32499800
C        0.72424200       1.17029500       1.33519800
C        1.93079000       1.14298200       1.92220800
H       -0.73087800      -2.28940300      -2.26310400
H       -2.33010900      -1.21443600      -0.95382400
H       -1.68357900      -0.16623600      -2.22570000
H       -1.63450000       1.03581800       0.02264600
H        0.98644000      -0.56829900       0.03333900
H        0.01133000       1.94666000       1.61660300
H        2.66345800       0.38589700       1.66765000
H        2.20928600       1.87657100       2.66827800
