19
Properties=species:S:1:pos:R:3 pbc="F F F"
C       -3.05489100       0.32507300       0.29600800
C       -1.57122400       0.16143000       0.59833700
C       -0.76773300      -0.29476300      -0.63191100
C        0.71549200      -0.42043700      -0.34657200
C        1.32316300      -1.62177500      -0.36424200
C        1.43308700       0.84103900      -0.07570700
C        2.68163400       0.95347800       0.39633400
H       -3.59744200       0.64327500       1.18384300
H       -3.49043300      -0.61205200      -0.04512800
H       -3.21692700       1.06908200      -0.48171600
H       -1.44048400      -0.56533500       1.40612500
H       -1.16556300       1.10926300       0.96752800
H       -0.91928300       0.42955300      -1.44217600
H       -1.16044500      -1.25180800      -0.98825200
H        0.76393800      -2.52579800      -0.57182200
H        2.38523800      -1.72428000      -0.17761500
H        0.87030100       1.75317600      -0.27801300
H        3.28576400       0.08448800       0.63059200
H        3.12816800       1.92617200       0.56314400
