12
Properties=species:S:1:pos:R:3 pbc="F F F"
C       -1.27807800       0.81813500      -0.57940500
C        0.24242800       0.70752500      -0.56455500
C        0.78362900      -0.10135700       0.62458500
O        0.43501900      -1.47258000       0.53871400
H       -1.61484300       1.40756200      -1.42924300
H       -1.64610000       1.29485500       0.32732500
H       -1.74623900      -0.16280700      -0.65207400
H        0.67561600       1.71292800      -0.53495300
H        0.58367400       0.25015800      -1.49797900
H        0.40850200       0.32985100       1.57795200
H        1.88240800      -0.04389600       0.65337900
H       -0.51103900      -1.55383600       0.36213100
