16
Properties=species:S:1:pos:R:3 pbc="F F F"
C       -0.33605400       0.44010300       2.01778100
C       -0.68774700       0.48529700       0.54441300
C        0.18811700       1.26102800      -0.42750600
C        0.10349300      -0.24064100      -0.51386800
C        1.29577500      -1.11251300      -0.18767000
O       -0.63497800      -0.77634200      -1.59931200
H       -0.72935500       1.31306800       2.53800500
H        0.74054900       0.42141800       2.16933300
H       -0.75841100      -0.44477300       2.49306700
H       -1.75863400       0.56867500       0.34982600
H        1.09199500       1.70977200      -0.02887000
H       -0.31499400       1.85667100      -1.18318700
H        1.90420400      -0.67465700       0.59967500
H        1.92296800      -1.24320100      -1.06798900
H        0.97631100      -2.10204300       0.13647700
H       -1.37631400      -0.19384100      -1.81074500
