16
Properties=species:S:1:pos:R:3 pbc="F F F"
C       -1.01271000      -0.86513800       1.41742900
C        0.47756100      -0.74793900       1.38208900
C        1.19212200       0.13307400       0.66076600
C        0.68304900       1.15586100      -0.27011700
C       -0.14622100       0.97632300      -1.31278500
C       -0.71792000      -0.32469600      -1.77815400
H       -1.36606500      -0.88687900       2.44934100
H       -1.34790200      -1.79461700       0.95139900
H       -1.49333800      -0.03582900       0.90591500
H        1.01824100      -1.42608800       2.04312800
H        2.27390800       0.15207800       0.81280500
H        1.08789200       2.15832000      -0.11274600
H       -0.40614900       1.84709200      -1.91567400
H       -0.25319200      -1.16954600      -1.27731000
H       -0.57411700      -0.43760800      -2.85363100
H       -1.79456000      -0.37182900      -1.59859700
