20
Properties=species:S:1:pos:R:3 pbc="F F F"
C       -0.14574800      -2.03465500       1.04417100
C       -0.60507600      -1.43303500      -0.27879000
C       -0.04246100      -0.02494400      -0.59136900
C       -0.53190200       1.02243700       0.43564500
C       -0.28434200       2.46256300       0.00276500
C        1.48653000      -0.03977200      -0.71606100
H       -0.57476800      -3.02546900       1.17992900
H       -0.45313800      -1.42127700       1.88846600
H        0.93684600      -2.13426000       1.07973400
H       -1.69978500      -1.38242500      -0.28670500
H       -0.32414900      -2.10958000      -1.09359300
H       -0.45134300       0.26144600      -1.57493900
H       -0.04831900       0.84615500       1.40163700
H       -1.60599900       0.88038100       0.59850700
H        0.77770800       2.66727400      -0.11358400
H       -0.67733800       3.15858300       0.74135700
H       -0.76890200       2.67493100      -0.94852900
H        1.96088400      -0.24728900       0.24086000
H        1.85833500       0.91942800      -1.06964900
H        1.80796900      -0.80346000      -1.42165600
