21
Properties=species:S:1:pos:R:3 pbc="F F F"
C       -2.87110200      -0.94855000       0.15214600
C       -1.34900200      -1.00625200       0.11509800
C       -0.71551900       0.36332200      -0.17059000
C        0.81731500       0.34333600      -0.16366300
C        1.46079700      -0.46776600      -1.28003400
C        1.52604800       1.59440600       0.28344600
C        1.51634700       0.38344900       1.16811100
H       -3.29217400      -1.93308500       0.34509500
H       -3.27248100      -0.59251100      -0.79464100
H       -3.21933600      -0.27614000       0.93383700
H       -1.03248800      -1.72465300      -0.64802000
H       -0.97479600      -1.38797600       1.07074900
H       -1.06794700       1.08319900       0.57531100
H       -1.07077400       0.72789400      -1.14201500
H        1.13696400      -0.11251600      -2.25820500
H        1.19393100      -1.52204800      -1.21044400
H        2.54521000      -0.39555000      -1.23830700
H        0.92641600       2.44513000       0.59175200
H        2.46284000       1.85653300      -0.19792700
H        0.90859900       0.42429800       2.06645000
H        2.44673100      -0.16424700       1.27928700
