19
Properties=species:S:1:pos:R:3 pbc="F F F"
C        1.53200900      -0.77865800       0.06501500
C        1.53263200       0.77794600      -0.05851700
C        0.22381400       1.44224700      -0.60156000
C       -0.85729000       0.73179100       0.19012500
C       -0.85686300      -0.73137200      -0.19376900
C        0.22056400      -1.44237900       0.60240600
C       -2.15675500       0.00052100      -0.00448100
H        2.38171700      -1.07005700       0.69265200
H        1.73004000      -1.20163800      -0.92654600
H        2.38519200       1.06895600      -0.68245600
H        1.72654900       1.20083900       0.93389300
H        0.11575100       1.28338000      -1.67874500
H        0.26863800       2.52560000      -0.42903200
H       -0.66036400       0.84755400       1.26036900
H       -0.65560600      -0.84723600      -1.26319300
H        0.26560100      -2.52572700       0.42994200
H        0.10798300      -1.28359300       1.67913900
H       -2.74893200      -0.12482600       0.89891700
H       -2.74523400       0.12617400      -0.91025300
