14
Properties=species:S:1:pos:R:3 pbc="F F F"
C        1.10382200       1.07932600       0.35321800
C        0.52012500      -0.27480000      -0.07464300
C       -1.03429600      -0.29486900      -0.06498900
N       -1.65019200       0.60237200      -1.05013900
O        1.01345100      -1.31300700       0.78306800
H        2.19073400       1.04473500       0.35676000
H        0.77400000       1.35009500       1.35572200
H        0.79500000       1.87200900      -0.32576300
H        0.87987100      -0.52005100      -1.09134000
H       -1.37688400      -1.31847000      -0.26230900
H       -1.40337800      -0.02391900       0.93459200
H       -1.35449500       0.35915200      -1.99245900
H       -1.39320600       1.56996100      -0.87130000
H        0.79418500      -1.10400700       1.70100500
