14
Properties=species:S:1:pos:R:3 pbc="F F F"
C       -1.20294500       1.08360700      -1.55174400
C        0.21904900       0.62610000      -1.75489900
N        0.88397800      -0.15272900      -0.96628700
N        0.28847700      -0.73267700       0.12816600
C        0.40921600      -0.19436300       1.29648200
C       -0.14329800      -0.86545900       2.51907500
H       -1.77968500       0.96840100      -2.46934300
H       -1.23699100       2.14108600      -1.28261000
H       -1.68367900       0.51418700      -0.76044600
H        0.74212600       0.99279800      -2.64869800
H        0.91009700       0.78124300       1.44134500
H       -0.62041800      -1.80992700       2.27094800
H       -0.87744700      -0.22850400       3.01575200
H        0.64668000      -1.06074600       3.24640900
