18
Properties=species:S:1:pos:R:3 pbc="F F F"
C        1.45349300      -0.71530200      -0.72626400
C        0.79552500       0.08867300       0.40402900
C       -0.76580500       0.05929600       0.39163900
C       -1.30411100      -1.33224500       0.74901300
C       -1.36400600       0.55598300      -0.93166400
O        1.25527200       1.44391600       0.36587700
H        2.53623300      -0.68135100      -0.62993800
H        1.19569900      -0.31197500      -1.70413300
H        1.14526800      -1.75814900      -0.70080700
H        1.13434600      -0.31926000       1.37544000
H       -1.08941900       0.75393300       1.18143200
H       -1.04619500      -2.06593700      -0.01240900
H       -2.38844300      -1.31464700       0.83673800
H       -0.89578700      -1.67508900       1.69803200
H       -1.13110500      -0.11764700      -1.75382700
H       -0.98545600       1.54444400      -1.18708300
H       -2.44711800       0.62453700      -0.85803000
H        1.03922400       1.83137500      -0.49294500
