17
Properties=species:S:1:pos:R:3 pbc="F F F"
C        1.80666700      -1.21833600       0.18081900
C        0.61819000      -0.85101800      -0.70166000
C       -0.36680500       0.11272000      -0.02940500
C       -1.08132700      -0.42083200       1.20504100
C       -1.07808100       1.12099900      -0.87769400
N        0.03756200       1.52711100      -0.01610100
H        2.49251700      -1.87428400      -0.35179300
H        1.48654800      -1.73390700       1.08420600
H        2.35406300      -0.32762400       0.47971400
H        0.08655500      -1.76428500      -0.99595900
H        0.98457500      -0.39283800      -1.62494500
H       -1.81134600       0.29577300       1.57639100
H       -0.37715800      -0.62746000       2.01038800
H       -1.60513500      -1.35026800       0.98276600
H       -2.07611600       1.45302200      -0.58447500
H       -0.87655500       1.17521800      -1.94883700
H       -0.31273700       1.99567300       0.82264300
