19
Properties=species:S:1:pos:R:3 pbc="F F F"
C       -0.09654600       0.69513600      -1.80457200
C       -0.67567600       0.99911700      -0.42888500
C       -0.20019600       0.03976400       0.68601700
C       -0.64580500      -1.40074400       0.50087900
C       -1.69321500      -1.82390100      -0.20727300
C        1.29191100       0.10512300       0.96689600
C        2.09546300       1.14428700       0.73827000
H       -0.46135100       1.40956300      -2.54005100
H       -0.37750600      -0.30153700      -2.13592600
H        0.98932600       0.74917200      -1.79248900
H       -1.76911300       0.96654300      -0.47738700
H       -0.41758900       2.02404000      -0.14259500
H       -0.69211100       0.38301300       1.62175900
H       -0.05559500      -2.13925900       1.04711500
H       -2.32399700      -1.14570400      -0.76908600
H       -1.94615300      -2.87664800      -0.24520400
H        1.71291800      -0.78382800       1.44102100
H        1.74186200       2.05805100       0.27592800
H        3.14368800       1.10389900       1.00892200
