18
Properties=species:S:1:pos:R:3 pbc="F F F"
N       -1.13287000       0.29597500      -2.07295900
C       -1.39880600      -0.47496100      -0.85536200
C       -0.80292700       0.19642200       0.38849200
C        0.75140000       0.21810400       0.44205500
N        1.23451300       1.07984000       1.54222200
C        1.35019500      -1.18364700       0.60035100
H       -1.54820800      -0.16000600      -2.88097400
H       -0.13300500       0.38771800      -2.23322100
H       -1.02544600      -1.51775000      -0.93697700
H       -2.48905100      -0.55314000      -0.73057300
H       -1.18356800      -0.31136300       1.28186700
H       -1.16681600       1.22785400       0.44053400
H        1.12841000       0.65517100      -0.50091100
H        0.94344500       0.70171200       2.44075700
H        0.84972200       2.01712800       1.45134500
H        1.00573900      -1.65271800       1.52059500
H        2.43565700      -1.13149600       0.63942100
H        1.07244600      -1.82932700      -0.22991800
