15
Properties=species:S:1:pos:R:3 pbc="F F F"
C       -1.75800100      -0.18585400       1.19105800
C       -1.81244100       0.92139100       0.43865900
C       -0.93671500       1.24774000      -0.69261200
C        0.37033100       0.96253000      -0.83208300
C        1.25208100       0.27938600       0.18674100
C        1.48902600      -1.13459100      -0.12182500
C        1.68861900      -2.29976400      -0.37179600
H       -2.46933300      -0.34355200       1.99308400
H       -1.03787200      -0.97259000       1.00427600
H       -2.60544700       1.64593900       0.63269500
H       -1.41408400       1.81869900      -1.49055200
H        0.87073600       1.27906400      -1.74717100
H        0.81394000       0.35765800       1.18990300
H        2.22367900       0.79407300       0.22200600
H        1.86098000      -3.32432500      -0.59309200
