23
Properties=species:S:1:pos:R:3 pbc="F F F"
C       -1.47308900      -2.19528600      -0.92010700
C       -1.83898300      -1.21522700       0.18844700
C       -1.21111500       0.17686100       0.02701700
C        0.33464000       0.21703600       0.08543900
C        0.83298500       1.63821200      -0.27436700
C        2.33137600       1.71676700      -0.54124400
C        0.86474800      -0.23286500       1.45318400
H       -1.99885100      -3.13850400      -0.78625800
H       -0.40626300      -2.40809400      -0.92705400
H       -1.74024700      -1.79886600      -1.89767900
H       -1.55925000      -1.64133600       1.15728000
H       -2.92818900      -1.09840700       0.21268400
H       -1.61546900       0.83520700       0.80434100
H       -1.53555300       0.60112500      -0.93007700
H        0.72481800      -0.47704700      -0.67563300
H        0.56832700       2.33252000       0.53039800
H        0.29783000       1.98500100      -1.16548500
H        2.91026300       1.44049400       0.33743500
H        2.61807700       2.72808200      -0.82301500
H        2.61930600       1.04990300      -1.35183900
H        0.50246200       0.41884600       2.24641300
H        1.95221500      -0.21424200       1.47593100
H        0.54715300      -1.24766800       1.68235300
