14
Properties=species:S:1:pos:R:3 pbc="F F F"
C        0.28646600       2.23180800      -0.23706600
C        0.47064300       0.71949700      -0.13869600
C       -0.86584500      -0.04467800      -0.35734100
C       -0.68092000      -1.49396700      -0.29715400
C       -0.49165600      -2.68589600      -0.23172700
O        1.00150500       0.40294400       1.14249100
H        1.23108300       2.73772500      -0.05418800
H       -0.43066200       2.58708100       0.49984700
H       -0.06933500       2.51772100      -1.22513400
H        1.19199100       0.38825000      -0.92409100
H       -1.59415700       0.25684600       0.40523400
H       -1.29532900       0.22594800      -1.33024400
H       -0.35945100      -3.73951800      -0.19619700
H        1.00169900      -0.55818800       1.25674200
