23
Properties=species:S:1:pos:R:3 pbc="F F F"
C        0.01484000       2.41652700      -1.37641300
C       -0.13940300       1.55598100      -0.12773300
C        0.22291300       0.06491800      -0.34788900
C       -0.29787500      -0.81548200       0.83668500
C        0.27270200      -2.24196000       0.80747500
C       -1.83312700      -0.88511300       0.85615400
C        1.73634200      -0.09021500      -0.56004800
H       -0.28756100       3.44194000      -1.17291100
H       -0.60406000       2.04025400      -2.18868000
H        1.04480000       2.43876800      -1.72576900
H       -1.17411300       1.63504200       0.21865000
H        0.48296200       1.96488900       0.67532600
H       -0.28176800      -0.27641400      -1.26610200
H        0.03144000      -0.34413500       1.77720300
H        0.06717200      -2.72975900      -0.14342200
H       -0.17940100      -2.84464000       1.59281500
H        1.34830700      -2.24773700       0.96596000
H       -2.21386200      -1.33081900      -0.06091100
H       -2.28413100       0.09885000       0.96200700
H       -2.17623000      -1.49561800       1.68919700
H        2.28560400       0.12632100       0.35452300
H        2.08936300       0.59299200      -1.32935800
H        1.99313100      -1.09787300      -0.87791100
