12
Properties=species:S:1:pos:R:3 pbc="F F F"
C       -0.05875800       0.57966000      -0.62200400
C       -0.55233200      -0.77605700      -0.12178500
C       -1.93107000      -0.97305100       0.37721400
O       -0.83224100      -0.86251800       1.27379700
C        1.35227900       0.88933500      -0.10751800
O        2.27108300       1.19083400      -0.82435700
H       -0.73339700       1.36472800      -0.26143400
H       -0.07041400       0.61401200      -1.71554500
H       -0.01095100      -1.64906600      -0.52102100
H       -2.39905100      -1.96453100       0.33609900
H       -2.63244000      -0.12919500       0.39728500
H        1.47480400       0.81820600       1.01364200
