14
Properties=species:S:1:pos:R:3 pbc="F F F"
C       -0.71589500       0.04133700       1.69278000
C       -1.05366600       0.10604300       0.21947200
C       -0.09270400       0.75405200      -0.76765000
C       -0.28967200      -0.72524300      -0.80210000
O        0.79491800      -1.50502700      -0.37529000
O        1.16928100       1.17214900      -0.28253700
H       -0.96828500       0.97384600       2.20007600
H        0.34545400      -0.14494600       1.83568300
H       -1.26661100      -0.76061100       2.18252200
H       -2.11238100       0.26293700       0.00031500
H       -0.50508800       1.39996600      -1.56136300
H       -0.85572500      -1.18882200      -1.61977000
H        1.49611500      -0.88718500      -0.11120000
H        1.06454500       1.95070200       0.28134400
