15
Properties=species:S:1:pos:R:3 pbc="F F F"
C       -3.60331200       0.26031000      -0.79252600
C       -2.11617200       0.38084400      -0.81191900
C       -1.30697100      -0.18273300       0.10808000
C        0.11619200      -0.07283100       0.09749000
C        1.33363800      -0.04396600       0.18487600
C        2.75850800       0.05122500       0.17900800
C        3.55631100      -0.42736400       1.14737500
H       -3.97152100      -0.17278700      -1.72446500
H       -4.07331400       1.24136400      -0.69675500
H       -3.94462500      -0.36218300       0.03163000
H       -1.68301200       0.96460900      -1.62252900
H       -1.73692200      -0.76674800       0.92502400
H        3.19626400       0.55307100      -0.68741100
H        3.15203200      -0.92789100       2.01825200
H        4.63193600      -0.32235000       1.08194900
