19
Properties=species:S:1:pos:R:3 pbc="F F F"
C       -1.56533600       2.19861100       0.10072000
C       -1.48493700       0.86935700       0.17838700
C       -1.01861100      -0.01942800      -0.94897500
C        0.50338300      -0.01034400      -1.19068100
C        1.38524400      -0.69749300      -0.15112800
C        1.23777400      -0.49214200       1.32495200
C        0.91843100      -1.82375300       0.71953800
H       -1.91450200       2.79025300       0.93796900
H       -1.28136500       2.73207200      -0.79900100
H       -1.78785600       0.37526000       1.10208000
H       -1.49599800       0.30788300      -1.87997100
H       -1.35783200      -1.04486900      -0.77316700
H        0.83647900       1.02823400      -1.30721300
H        0.68830600      -0.49188900      -2.15985900
H        2.41894800      -0.78593500      -0.49416000
H        0.41229400       0.11221300       1.68388000
H        2.14425600      -0.40900400       1.91674600
H       -0.12447800      -2.11938500       0.67279200
H        1.60604900      -2.64367200       0.90302300
