13
Properties=species:S:1:pos:R:3 pbc="F F F"
N       -0.21196800       1.61716500      -1.11426600
C       -0.87572100       1.01443100       0.03969400
C       -0.38011100      -0.39730800       0.29694200
C       -1.22181800      -1.41339300       0.56189700
C        1.04610300      -0.60339700       0.27464800
C        2.24707800      -0.76421500       0.25855300
H       -0.56832600       2.55305200      -1.28863800
H       -0.34684400       1.05255200      -1.94880500
H       -1.98124400       0.99549300      -0.06488000
H       -0.66307800       1.63469000       0.92606500
H       -2.29395600      -1.25631000       0.57585900
H       -0.85610900      -2.41109100       0.76850900
H        3.30014400      -0.90525400       0.24134900
