14
Properties=species:S:1:pos:R:3 pbc="F F F"
C       -0.95787200      -2.07829300      -1.00527700
N       -1.20125800      -0.64659800      -1.17572800
C       -0.75121700       0.18863700      -0.05517000
C        0.78261400       0.32057000      -0.03019700
C        1.24492200       1.21855600       1.02615600
N        1.61066100       1.92737900       1.85573000
H       -1.40231800      -2.61981000      -1.84202900
H       -1.38376000      -2.47998900      -0.06898400
H        0.11529500      -2.28837200      -0.99743600
H       -2.19858800      -0.48863400      -1.33490700
H       -1.09905700      -0.20476400       0.92168100
H       -1.19814500       1.18357400      -0.17526800
H        1.14306000       0.69716200      -0.99440400
H        1.24701000      -0.66144500       0.11826000
