16
Properties=species:S:1:pos:R:3 pbc="F F F"
C        0.49529200       0.05059500       2.19396700
C       -0.36025600      -0.97520200       1.45990600
C       -0.10828300      -1.01866000      -0.05408100
C       -0.51587000       0.26500200      -0.76488000
C        0.46802100       1.28733500      -1.17952000
O       -0.10673800       0.39443500      -2.12676600
H        0.29483600       0.02390600       3.26276900
H        0.29208100       1.06019100       1.84175100
H        1.55514200      -0.14662900       2.04666700
H       -1.41926200      -0.76346200       1.64498900
H       -0.16797200      -1.96810200       1.87892800
H       -0.67416700      -1.85516100      -0.48028900
H        0.94788500      -1.22569500      -0.25193700
H       -1.55328500       0.59483800      -0.58152000
H        1.53784800       1.13266800      -0.98892300
H        0.16738000       2.33755200      -1.29064600
