17
Properties=species:S:1:pos:R:3 pbc="F F F"
C       -0.42804700      -1.76477100       1.18722200
C       -1.10201900      -0.85065000       0.16604100
C       -0.68221600       0.59919200       0.28040500
C       -1.57141900       1.57592100       0.50307100
C        0.79930600       0.91536700       0.14898600
C        1.45537400       0.23228800      -0.96749200
C        2.02119700      -0.31722500      -1.88279700
H       -0.77736700      -2.78821100       1.06832100
H       -0.65140900      -1.45014500       2.20453600
H        0.65251400      -1.76348700       1.06252000
H       -2.18899600      -0.92150300       0.27094500
H       -0.85864800      -1.20828900      -0.84190900
H       -2.62526400       1.35725100       0.62590000
H       -1.26723800       2.61422700       0.56453700
H        1.31233000       0.62705600       1.07993800
H        0.94258200       1.99786700       0.04308900
H        2.50844000      -0.80549000      -2.69049700
