15
Properties=species:S:1:pos:R:3 pbc="F F F"
C       -2.44631200       0.16543000       0.47270800
C       -1.28863200      -0.38583400       0.10680400
C       -0.38605800       0.18340800      -0.96330700
N        1.04500700       0.33105900      -0.61256000
C        1.40878600       0.51933500       0.79042000
C        1.71966900      -0.75852000       0.09012100
H       -3.07878200      -0.29260800       1.22418900
H       -2.79614400       1.09174600       0.03014500
H       -0.97660300      -1.32048700       0.57423500
H       -0.76313700       1.16906000      -1.27552000
H       -0.44020700      -0.46361600      -1.85613400
H        0.60480400       0.52395400       1.52936500
H        2.20562700       1.24313100       0.97554600
H        1.14339800      -1.65082900       0.34493500
H        2.74127700      -0.96068000      -0.23931300
