16
Properties=species:S:1:pos:R:3 pbc="F F F"
C       -1.14249700       0.07453600       1.90487300
C        0.23701300       0.35326400       1.34499300
N        0.35381800       1.33073000       0.25427600
C        0.67898000      -0.07695200      -0.01861300
C       -0.21758800      -0.83665600      -0.98784500
N        0.30501300      -0.72959100      -2.35448900
H       -1.39977800       0.80212000       2.67436600
H       -1.18807000      -0.91534800       2.35953200
H       -1.90244700       0.12774800       1.12968800
H        1.02555800       0.40894700       2.10846500
H        1.20480100       1.88798100       0.35661600
H        1.74866000      -0.29652900      -0.13216400
H       -1.25627300      -0.45929800      -0.91150300
H       -0.25124500      -1.90268300      -0.70908500
H        0.38714800       0.24812100      -2.62228500
H       -0.31562300      -1.19417600      -3.01258800
