21
Properties=species:S:1:pos:R:3 pbc="F F F"
C       -1.89666500      -1.37479400       0.75594200
C       -1.99689600       0.14401800       0.71088500
C       -1.10167000       0.78904100      -0.36308400
C        0.38580900       0.58585300      -0.11597500
C        1.01155900       1.23718500       0.87405300
C        1.07841500      -0.37444200      -1.06043300
C        2.55994500      -0.60909300      -0.80481300
H       -2.56969100      -1.78219700       1.50774800
H       -0.88618200      -1.69339300       1.00165700
H       -2.16226200      -1.81401100      -0.20390500
H       -1.73557800       0.55606300       1.69078100
H       -3.03647100       0.43288500       0.51941200
H       -1.32231200       1.86207200      -0.39186200
H       -1.37171900       0.38834700      -1.34570100
H        0.46942500       1.91781400       1.51908300
H        2.06776600       1.10597700       1.06815800
H        0.93972500      -0.00735200      -2.08651300
H        0.54661900      -1.33445400      -1.02884500
H        3.12887200       0.31340600      -0.89719000
H        2.95897900      -1.32147800      -1.52407500
H        2.72984500      -1.01028800       0.19180400
