19
Properties=species:S:1:pos:R:3 pbc="F F F"
C       -0.28479000      -0.03266900      -2.22744600
C        0.60611300       0.88454600      -1.45177700
C        0.91347600       0.78339700      -0.14827300
C        0.42957900      -0.23906600       0.81498700
C       -0.86915800      -0.47926400       1.09199200
C       -2.04689700       0.24441700       0.51809000
C        1.51794900      -0.98010200       1.55418100
H        0.23168400      -0.39835800      -3.11636100
H       -1.17914800       0.48843300      -2.57559200
H       -0.59679800      -0.88777600      -1.63460400
H        1.06978600       1.68625100      -2.02800900
H        1.64837000       1.48398800       0.25573000
H       -1.10134700      -1.24243300       1.83529100
H       -1.74367900       1.10680200      -0.06915000
H       -2.70715300       0.58731300       1.31647600
H       -2.64348500      -0.41013500      -0.12178000
H        2.15323900      -1.53732000       0.86412700
H        1.10395200      -1.68083100       2.27572200
H        2.16694300      -0.28349600       2.08762000
