17
Properties=species:S:1:pos:R:3 pbc="F F F"
C        0.49087500       1.95960600      -0.37247700
C        1.31052900       0.66702200      -0.30998400
C        0.07938400      -0.05752500      -0.88615600
N       -0.62811000       1.25220000      -1.03850700
C       -0.64084500      -1.06463700       0.00902300
C       -0.72854000      -0.92380400       1.49079500
N        0.17009000      -1.90955000       0.89059400
H        0.91613300       2.77363800      -0.98102100
H        0.22337700       2.38089000       0.60994500
H        1.62123200       0.34818700       0.68711700
H        2.18630600       0.64990900      -0.96359300
H        0.26513700      -0.53161300      -1.87155200
H       -1.50439600       1.30254600      -0.51279100
H       -1.49170300      -1.56530300      -0.47429100
H       -1.61636500      -1.30236700       2.00227100
H       -0.23759400      -0.08843600       1.99171700
H       -0.22441200      -2.84997000       0.96038200
