17
Properties=species:S:1:pos:R:3 pbc="F F F"
C       -0.00099100      -2.13489100      -0.44726000
C       -0.72556700      -0.79965900      -0.58784500
C       -0.04878900       0.34644700       0.17365000
C       -0.06161500       0.23338000       1.69153800
C        1.07345000       1.07736400      -0.49351100
N       -0.24515800       1.70591200      -0.35678700
H       -0.50806500      -2.90984600      -1.01807900
H        0.03643700      -2.45609300       0.59143600
H        1.02192100      -2.06565200      -0.81206900
H       -1.75718200      -0.91133800      -0.23412600
H       -0.79038900      -0.53546000      -1.64890600
H        0.49877600      -0.63829900       2.02854300
H       -1.07975200       0.13456700       2.06715600
H        0.38016300       1.11631400       2.14602100
H        1.37621100       0.77871300      -1.49909300
H        1.86461600       1.53009600       0.10566700
H       -0.74556000       1.67976500      -1.24846700
