17
Properties=species:S:1:pos:R:3 pbc="F F F"
C       -2.46831400       1.68608900      -1.28350900
C       -1.39922200       0.89584900      -1.38208000
C       -0.66490100       0.30778100      -0.20607700
C        0.81789900       0.56768900      -0.25876200
C        1.78789600      -0.20164100       0.27395600
C        1.64369900      -1.45185500       1.02321100
C        0.61056100      -1.82038100       1.79486900
H       -2.96747700       2.06903900      -2.16513700
H       -2.87350100       1.97258100      -0.31967500
H       -1.01821900       0.63153000      -2.36881500
H       -0.84369900      -0.77645700      -0.17245600
H       -1.08608100       0.71143700       0.72516500
H        1.12529700       1.46064400      -0.80287900
H        2.81968900       0.10599800       0.09928500
H        2.50015800      -2.12500200       0.95595900
H       -0.24526500      -1.18005100       1.96448600
H        0.62338200      -2.77090100       2.31442100
