13
Properties=species:S:1:pos:R:3 pbc="F F F"
C       -0.15201800       0.25795300       1.96289500
C       -0.46308700       0.25609300       0.48048800
C        0.41784700       1.03951800      -0.47633200
C        0.42289100      -0.46013900      -0.49591300
O       -0.15082400      -1.13786800      -1.58941200
H       -0.53957700       1.15400400       2.44746800
H        0.92156900       0.22287100       2.13603200
H       -0.59958700      -0.60398600       2.45695300
H       -1.52758900       0.27226800       0.24151200
H        1.27594700       1.55811500      -0.06080400
H       -0.07574100       1.56391200      -1.28858000
H        1.30587600      -0.98649100      -0.12354100
H       -0.90810800      -0.63829300      -1.92057600
