16
Properties=species:S:1:pos:R:3 pbc="F F F"
C       -0.47201800      -0.16917400      -2.02358700
C       -0.46815200      -0.38688100      -0.51624000
O        0.54813600      -1.33452900      -0.08498200
C        1.12616700      -0.38322500       0.82862900
C        0.15046000       0.70943100       0.37800700
C       -0.74335600       1.33914200       1.44057200
H       -0.73261200      -1.08949800      -2.54239500
H        0.50640000       0.14935800      -2.37776700
H       -1.19834500       0.59331500      -2.30188600
H       -1.47227500      -0.72300200      -0.17566300
H        2.19732800      -0.20485300       0.61885800
H        1.02840100      -0.71253200       1.88045400
H        0.64355900       1.50126400      -0.20419600
H       -1.24397900       0.57776300       2.03593400
H       -1.50934700       1.96453300       0.98469300
H       -0.16281500       1.96412300       2.11753700
