15
Properties=species:S:1:pos:R:3 pbc="F F F"
C        1.54134100      -0.05889000      -0.00812700
N        0.92667900      -1.20632500      -0.03569300
C       -0.54548400      -1.07352800      -0.04221500
C       -0.98926900      -0.08893700       1.05989800
C       -0.60532000       1.00144500       0.04436200
N        0.85816800       1.14793100       0.10543200
C       -0.96096400       0.00049100      -1.07444600
H        2.63869200      -0.00526400      -0.02654000
H       -1.02791600      -2.06463700      -0.09075300
H       -0.44405500      -0.10678500       2.00647100
H       -2.06517200      -0.12081300       1.24629600
H       -1.08902000       1.99216200       0.08262200
H        1.27649500       1.98581900      -0.28981600
H       -0.39265100       0.06057800      -2.00630400
H       -2.03212600      -0.01579300      -1.28697900
