19
Properties=species:S:1:pos:R:3 pbc="F F F"
C       -2.17664300       0.42905800       0.16954900
C       -0.68516500       0.34412500       0.05712300
C        0.07734100      -0.76442700      -0.02833500
C       -0.37291600      -2.19328300      -0.03263800
C        1.54705000      -0.42636900      -0.12231300
C        1.60665300       1.11189800      -0.08816600
C        0.15198900       1.60183400       0.03397400
H       -2.64439600      -0.55203600       0.13196600
H       -2.59527500       1.03475600      -0.63658000
H       -2.47074400       0.90663700       1.10669700
H       -1.45663100      -2.27883000      -0.00135000
H        0.03236400      -2.73269000       0.82620900
H       -0.01802300      -2.71199600      -0.92536500
H        1.99204100      -0.83271400      -1.04030300
H        2.11347800      -0.87531800       0.70448500
H        2.07916300       1.50655400      -0.99187300
H        2.21191900       1.46350300       0.75195000
H       -0.13146400       2.25441000      -0.80246700
H       -0.00228600       2.20071200       0.94146100
