17
Properties=species:S:1:pos:R:3 pbc="F F F"
C       -0.34688500       1.30936500      -1.50623100
C       -0.47433500       0.10405900      -0.61304700
C       -1.17399800      -0.97203100      -0.99603100
C        0.22813300       0.20126100       0.75338200
N       -0.19576900      -0.82890600       1.71543400
C        1.75641100       0.15133400       0.59875000
H       -0.90283000       1.18035200      -2.43148000
H        0.69639800       1.50057100      -1.76104200
H       -0.71947600       2.20319500      -1.00385300
H       -1.66240600      -1.00850300      -1.96195900
H       -1.27182600      -1.84087700      -0.35610100
H       -0.03630100       1.18775000       1.18373300
H        0.11783200      -1.74860900       1.41457900
H       -1.20965200      -0.84502900       1.79580900
H        2.07193100      -0.79663900       0.16740800
H        2.23676800       0.25439100       1.56902900
H        2.11398600       0.95181800      -0.04509900
