21
Properties=species:S:1:pos:R:3 pbc="F F F"
C       -1.22663500      -1.23377500       1.72267800
C        0.20741200      -0.83335600       1.38971500
C        0.37108000      -0.24859200      -0.02079700
C        0.10544600      -1.23891000      -1.14640300
C        1.46522700       0.77261800      -0.21630600
C        0.02543800       1.21119500      -0.20379500
C       -0.63320700       1.75052600      -1.45635200
H       -1.29418000      -1.61037600       2.74139600
H       -1.58420700      -2.01393200       1.05432000
H       -1.89997600      -0.38379000       1.63322300
H        0.85904200      -1.70894100       1.49749100
H        0.55388800      -0.09957300       2.12505500
H        0.37109400      -0.82234300      -2.11477200
H       -0.94497700      -1.52662800      -1.18188900
H        0.68887300      -2.14841000      -1.00376400
H        1.98347700       0.78282400      -1.16989900
H        2.08494400       1.03830200       0.63532400
H       -0.28945600       1.72500600       0.70685200
H       -0.22924500       1.28899400      -2.35405700
H       -0.47899800       2.82622900      -1.53932600
H       -1.70885000       1.57439800      -1.44240100
