14
Properties=species:S:1:pos:R:3 pbc="F F F"
N        0.54512300      -0.07038000      -1.52326000
C        0.01749800      -0.42328200      -0.19168000
C       -1.45797600      -0.43285400      -0.20220000
C       -2.66517400      -0.43245800      -0.16232400
C        0.55193600       0.52766800       0.91752500
N        2.01656800       0.50738600       0.93143800
H        1.55111000       0.07423800      -1.45099600
H        0.12461200       0.79678700      -1.84919400
H        0.36037800      -1.45109700       0.04744300
H       -3.72737800      -0.44398900      -0.16282000
H        0.12046100       0.23353900       1.89567100
H        0.21817900       1.55467000       0.72018500
H        2.36381200      -0.42192900       1.15687300
H        2.37928400       1.16429200       1.61766300
