15
Properties=species:S:1:pos:R:3 pbc="F F F"
N       -2.17914000       0.67629700       0.91028400
C       -0.73700000       0.52653100       0.86901900
C        0.03116900       1.29715100      -0.16417000
C       -0.12303100      -0.19589800      -0.29780300
C        1.08616200      -1.09952800      -0.09765300
O        1.85958100      -1.19967700      -1.28585900
H       -2.44936600       1.50359900       1.43741800
H       -2.62418500      -0.13661000       1.33019900
H       -0.23205000       0.39303000       1.84338800
H        1.00788000       1.68396700       0.11310200
H       -0.52887900       1.92610500      -0.84735700
H       -0.81684600      -0.52382100      -1.07172200
H        1.71385900      -0.71423400       0.73547100
H        0.77516400      -2.12053200       0.17662400
H        1.98795000      -0.31769800      -1.65859400
