15
Properties=species:S:1:pos:R:3 pbc="F F F"
C       -0.97825700      -0.97620100       1.62080600
C       -1.40846200       0.17983100       0.72651000
C       -0.81513100       0.09068900      -0.68896000
C        0.71721300       0.12327200      -0.70414500
O        1.39986300      -0.80563500      -1.12975700
N        1.31240900       1.29778100      -0.25436900
H       -1.41853800      -0.88211400       2.61109500
H        0.10343100      -1.00408900       1.73124600
H       -1.29253900      -1.92802800       1.19954900
H       -1.11802600       1.13132800       1.18817100
H       -2.50046300       0.19849000       0.65281000
H       -1.19582700       0.92209200      -1.29288400
H       -1.14502600      -0.83265900      -1.16854000
H        0.77392400       1.96354200       0.28348500
H        2.31512400       1.28651100      -0.11156300
