15
Properties=species:S:1:pos:R:3 pbc="F F F"
C       -0.97531900       2.13848700       0.95003700
N       -1.28094500       1.32858600      -0.22538000
C       -0.78723600      -0.05310200      -0.18043600
C        0.75810500      -0.16570000      -0.26065600
C        1.21675300      -1.55255800      -0.25787100
C        1.58120900      -2.70481300      -0.25690100
H       -1.43741800       3.12290000       0.84241800
H        0.10645100       2.29337000       1.11525500
H       -1.38230900       1.66495900       1.84702900
H       -0.95205300       1.79668900      -1.07282400
H       -1.23155200      -0.60802700      -1.01900600
H       -1.14234500      -0.52663000       0.74346900
H        1.21517200       0.36595400       0.58356100
H        1.11694900       0.33060900      -1.17229800
H        1.91264900      -3.71380600      -0.25498000
