18
Properties=species:S:1:pos:R:3 pbc="F F F"
C       -1.71066900       0.03518200      -1.72911000
C       -0.20200700       0.05726700      -1.51793900
C        0.22321500       0.41032400      -0.07179500
C       -0.13949400      -0.69592200       0.94519500
C        0.27059300      -0.33765900       2.36783500
O        1.63436800       0.65874500      -0.04429600
H       -1.94993600      -0.16486700      -2.77128900
H       -2.15696400       0.99106000      -1.46138800
H       -2.18783400      -0.73511000      -1.12649500
H        0.24429600       0.79206300      -2.19455400
H        0.22196300      -0.91428700      -1.79786800
H       -0.26067200       1.35831700       0.22857100
H        0.34610900      -1.63318100       0.64835300
H       -1.21729700      -0.88400700       0.90968100
H        1.33658800      -0.12984600       2.41927900
H        0.04779800      -1.15191800       3.05448800
H       -0.25770100       0.54858000       2.71324700
H        2.10887900      -0.16191200      -0.23277100
