15
Properties=species:S:1:pos:R:3 pbc="F F F"
C        0.25230800      -0.00066100       2.87067800
C       -0.12182300      -0.00044400       1.72143900
C       -0.58174900      -0.00030000       0.32786500
C       -0.10239600       1.24088400      -0.48053500
C        0.34069900       0.66890700      -1.79633500
C        0.34108000      -0.66775700      -1.79672700
C       -0.10139600      -1.24071000      -0.48113900
H        0.58406200      -0.00083600       3.87963900
H       -1.68507200      -0.00070400       0.34491800
H        0.72469800       1.75914300       0.02036600
H       -0.90175600       1.98291100      -0.59604500
H        0.64546200       1.29287000      -2.63117000
H        0.64613100      -1.29114800      -2.63189900
H        0.72626200      -1.75835800       0.01949500
H       -0.90012700      -1.98338700      -0.59677300
