23
Properties=species:S:1:pos:R:3 pbc="F F F"
C       -1.85428200      -2.37846900       0.56163100
C       -2.11991400      -0.99201000       1.13619500
C       -1.53490500       0.15185400       0.29555700
C       -0.00246800       0.20478200       0.30725000
C        0.54291600       1.38417300      -0.50706000
C        2.07411000       1.49495700      -0.48348000
C        2.78496700       0.37209200      -1.22977100
H       -2.31506000      -3.14584900       1.18036100
H       -0.78849100      -2.58946300       0.50878000
H       -2.26134800      -2.46954300      -0.44347000
H       -1.72070300      -0.93699600       2.15474000
H       -3.20218500      -0.84603800       1.22324600
H       -1.92792700       1.10266200       0.67361700
H       -1.88993000       0.06414500      -0.73705900
H        0.40189300      -0.73296100      -0.08612500
H        0.35209800       0.28081900       1.34130600
H        0.11682400       2.31547400      -0.11647500
H        0.19914100       1.30286800      -1.54400900
H        2.42192900       1.51973900       0.55493100
H        2.36416100       2.45407500      -0.92653600
H        2.56919500      -0.59795400      -0.78731300
H        3.86321900       0.51644100      -1.20564400
H        2.47463600       0.33830400      -2.27229100
