16
Properties=species:S:1:pos:R:3 pbc="F F F"
C       -0.63316300       2.61253200      -0.55074000
N       -0.87868800       1.18281300      -0.38482300
C        0.17502200       0.49213700       0.37227400
C       -0.12533600      -0.99512800       0.48316400
C        0.42265200      -1.96323900      -0.50906400
N        0.96091100      -1.90806900       0.85119500
H       -1.43619000       3.05590000      -1.14352200
H        0.32522500       2.83345100      -1.05504900
H       -0.61236100       3.10632200       0.42485200
H       -0.99664800       0.74084400      -1.29946500
H        0.23307300       0.93935300       1.37766300
H        1.17807500       0.63791200      -0.08638000
H       -1.08705200      -1.24014400       0.94856300
H        1.06098500      -1.58908500      -1.31232100
H       -0.13350200      -2.86964800      -0.75283200
H        1.85778200      -1.41593000       0.86008600
