11
Properties=species:S:1:pos:R:3 pbc="F F F"
C       -0.75576000       0.51407200       1.62322200
C       -1.10137400       0.46766500       0.15212400
O       -0.26286600       1.19939600      -0.73624800
C       -0.24034800      -0.22551800      -0.84933200
C        0.99288000      -0.89385100      -0.45427100
N        1.94447300      -1.46899000      -0.15356900
H       -1.12158800       1.43607200       2.07281200
H        0.32017700       0.46772700       1.77098700
H       -1.21312000      -0.31993500       2.15494700
H       -2.17486100       0.54779600      -0.08996100
H       -0.69138600      -0.61811000      -1.77427100
