19
Properties=species:S:1:pos:R:3 pbc="F F F"
C       -2.28071400       0.42849400       0.01582500
C       -0.74561400       0.38764600      -0.05045900
C       -0.28159100       0.41412700      -1.44956800
C        0.09519500       0.45093100      -2.59704900
C       -0.18863200      -0.84182700       0.70845500
C        1.34327200      -0.88990300       0.77990200
C        1.95151300       0.18450900       1.67360100
H       -2.61599200       0.46382800       1.05089300
H       -2.71605300      -0.45367100      -0.44852800
H       -2.66921900       1.30512800      -0.49754300
H       -0.35960000       1.29988100       0.43771700
H        0.42886600       0.47807800      -3.60498400
H       -0.55279000      -1.75328200       0.22362500
H       -0.60529100      -0.84209600       1.72171200
H        1.75662300      -0.80279200      -0.22944700
H        1.64341500      -1.87493200       1.15346900
H        1.72342300       1.18299300       1.30634900
H        3.03413600       0.08375600       1.71152000
H        1.57191100       0.10924500       2.69098500
