19
Properties=species:S:1:pos:R:3 pbc="F F F"
C        0.08614300       2.23085800       0.57003100
C       -0.40991700       1.65060200      -0.74731100
C        0.14801100       0.24177600      -1.07435700
C       -0.24165000      -0.75067400      -0.05087300
C       -0.56905500      -1.57995100       0.76683700
C       -0.95701000      -2.57873400       1.75527700
C        1.66985700       0.25075100      -1.28861200
H       -0.37355700       3.19923600       0.75842500
H        1.16511600       2.37058600       0.56029100
H       -0.15903500       1.57228600       1.40007400
H       -0.14769600       2.32662500      -1.56876800
H       -1.50312000       1.59639600      -0.72791700
H       -0.31875500      -0.07324400      -2.02663500
H       -0.35518600      -3.48309600       1.64876400
H       -2.00637100      -2.85543200       1.63797700
H       -0.81885400      -2.19840700       2.76905000
H        2.19725900       0.51823400      -0.37634700
H        1.94196800       0.96940400      -2.05957000
H        2.01996300      -0.73035100      -1.60129100
