17
Properties=species:S:1:pos:R:3 pbc="F F F"
C       -1.43465600      -0.66439600      -1.36003400
C        0.07697600      -0.56055200      -1.21533800
C        0.53929400       0.43225300      -0.12734000
C        0.13689300       0.00280900       1.31138200
O       -1.24870300       0.18114600       1.56444000
N        2.00564300       0.60235800      -0.23646100
H       -1.69408300      -1.36364400      -2.15256200
H       -1.87081900       0.30086600      -1.61237500
H       -1.89599200      -1.01002200      -0.43866300
H        0.51381800      -0.25084400      -2.17022700
H        0.49356100      -1.55052000      -0.99547200
H        0.07636200       1.41814000      -0.32933600
H        0.72973800       0.59273100       2.04513500
H        0.37029900      -1.05761300       1.48780500
H       -1.51349400       1.07476100       1.30972500
H        2.47658000      -0.29561600      -0.15394400
H        2.35311100       1.21539800       0.49760500
