14
Properties=species:S:1:pos:R:3 pbc="F F F"
O       -0.99411900      -1.85712000      -0.03803400
C       -1.51667000      -0.75633500      -0.04532900
O       -0.84494200       0.40457200       0.08815100
C        0.61461300       0.29473600       0.24244700
C        1.24861900       0.07084200      -1.12904800
C        1.09489700       1.56895200       0.92794800
H       -2.62371700      -0.57960300      -0.15585200
H        0.80230100      -0.58278500       0.88902000
H        1.03165300       0.89952900      -1.80012400
H        0.86980600      -0.84358500      -1.57829800
H        2.32943100      -0.01628300      -1.03782000
H        0.88428200       2.44440600       0.31738200
H        2.16812800       1.52754600       1.10029000
H        0.60184700       1.70199500       1.88835200
