14
Properties=species:S:1:pos:R:3 pbc="F F F"
O       -0.22010300       2.25246700       0.61956000
C       -0.63501500       1.36767300      -0.40486900
C        0.26418400       0.14322800      -0.41515000
C       -0.19296600      -1.10950600      -1.13656200
C       -0.09339900      -1.08917600       0.36220700
O        0.91755400      -1.83359400       0.99483700
H       -0.77742000       3.04087900       0.62267000
H       -0.59945700       1.88797600      -1.38887600
H       -1.69453900       1.06683200      -0.24948200
H        1.32764000       0.37037400      -0.50020300
H        0.55489700      -1.66123600      -1.69714900
H       -1.17773300      -1.09611400      -1.59472900
H       -1.01826000      -1.09962200       0.94568800
H        1.74844100      -1.73337700       0.51314700
