12
Properties=species:S:1:pos:R:3 pbc="F F F"
C       -1.88871300      -1.25069700       1.57108400
C       -0.36395000      -1.19049200       1.49550300
C        0.12371400      -0.33069000       0.41528300
C        0.53544500       0.38315100      -0.48130500
C        1.00415100       1.19641200      -1.50295700
C        1.41714200       1.90901400      -2.39793800
H       -2.20140000      -1.89979100       2.38642700
H       -2.30988800      -1.63940300       0.64705700
H       -2.30992600      -0.26306400       1.74273300
H        0.04071800      -2.20255100       1.35624300
H        0.04066600      -0.82767800       2.45052700
H        1.77310400       2.53230000      -3.18101000
