15
Properties=species:S:1:pos:R:3 pbc="F F F"
N       -0.46612000       0.41576300       1.71239900
C       -1.12479700       0.44294700       0.42060000
C       -0.52228700       1.16074400      -0.75684300
C       -0.55991200      -0.35053300      -0.73492700
C        0.67041600      -1.17471800      -0.59496300
C        1.89388800      -0.73405300      -0.28425900
H       -0.45465200       1.33867400       2.14166000
H        0.49123700       0.08053700       1.62338700
H       -2.21907000       0.45895400       0.49117700
H        0.44409200       1.63629600      -0.62777600
H       -1.18383900       1.66274900      -1.45651800
H       -1.31329500      -0.80604400      -1.38053200
H        0.52501300      -2.24474800      -0.74990000
H        2.10459400       0.31855100      -0.13537900
H        2.72491500      -1.42163100      -0.19055800
