17
Properties=species:S:1:pos:R:3 pbc="F F F"
C       -1.51288900       0.76435900      -1.80643600
C       -0.81347000      -0.52522500      -1.39343100
C        0.52636800      -0.29884200      -0.67449800
C        0.38302300       0.36098200       0.69080100
C        0.20567300      -0.46062800       1.92074800
N        1.47410400       0.22407600       1.66081700
H       -2.43434400       0.54681500      -2.34250400
H       -0.87836300       1.36075400      -2.45894800
H       -1.76695400       1.37344100      -0.94163400
H       -0.63447800      -1.13451100      -2.28586900
H       -1.47836900      -1.11186600      -0.75036700
H        1.17635800       0.31545300      -1.30932600
H        1.03408100      -1.26273100      -0.55526900
H       -0.07273900       1.35778000       0.67992100
H        0.19834100      -1.54885200       1.83050700
H       -0.37041400      -0.06940400       2.76069200
H        2.17592100      -0.43928100       1.32398000
