17
Properties=species:S:1:pos:R:3 pbc="F F F"
N       -0.13908200       1.71390400       0.60762200
C       -0.54272400       1.11117500      -0.67110800
C       -0.01819400      -0.33363600      -0.84526800
C       -0.65410900      -1.30620600       0.17770900
O       -0.27487600      -1.01339900       1.50711200
C        1.51267400      -0.40273900      -0.80443100
H       -0.58040400       2.62327200       0.72411900
H        0.87028100       1.84208500       0.63607100
H       -0.20168400       1.72573000      -1.52968400
H       -1.64125600       1.10243700      -0.71217200
H       -0.34377300      -0.66275500      -1.84667500
H       -1.76272700      -1.26829400       0.07499700
H       -0.34678600      -2.34186900      -0.04252500
H       -0.30707600      -0.04739400       1.62427100
H        1.88533700      -0.18646300       0.19406000
H        1.95729100       0.30986100      -1.49765500
H        1.85748800      -1.39830500      -1.07646700
