19
Properties=species:S:1:pos:R:3 pbc="F F F"
C       -2.92550700      -0.47154200       0.81827500
C       -1.82769400      -0.26744100       0.08833800
C       -0.45168400      -0.07836100       0.66064900
C        0.66720400      -0.99834400       0.11280600
C        1.56260600       0.23628900      -0.11345200
C        0.35293400       1.14976600       0.16903100
C        2.24387500       0.36928100      -1.47020000
H       -3.89515700      -0.60405900       0.35389600
H       -2.88495800      -0.51138900       1.90097500
H       -1.90585900      -0.23391200      -0.99934700
H       -0.49528900      -0.11399200       1.75784800
H        0.38723900      -1.49929800      -0.81680800
H        1.04606100      -1.75216500       0.80851000
H        2.31682300       0.32655600       0.68142100
H       -0.06510700       1.59872500      -0.73490000
H        0.50697200       1.94206100       0.90664200
H        1.52565100       0.27445200      -2.28242800
H        3.00076400      -0.40216700      -1.60159600
H        2.73246300       1.33729600      -1.56689400
