17
Properties=species:S:1:pos:R:3 pbc="F F F"
C       -0.61750300       0.02153100       1.96068800
C       -0.95178400       0.20270500       0.49697800
C       -0.05236800       1.00191200      -0.40265200
C       -0.14498000      -0.50030500      -0.57547500
C        0.98226100      -1.33886600      -0.22464100
C        1.92232500      -2.05347700       0.04066800
C       -0.63054900       1.91644100      -1.46041400
H       -0.98861400       0.85878100       2.55178800
H        0.45728700      -0.04798200       2.10921300
H       -1.07078900      -0.88710900       2.35554300
H       -2.02012900       0.27594500       0.28317300
H        0.87199100       1.36073300       0.05074200
H       -0.70626600      -0.85395800      -1.44382200
H        2.74893600      -2.67386200       0.28447300
H       -1.54739900       1.50537600      -1.87869600
H        0.07318900       2.06574100      -2.27901300
H       -0.86262100       2.89667900      -1.04431200
