21
Properties=species:S:1:pos:R:3 pbc="F F F"
C       -2.99145100       1.19016500       1.14632600
C       -1.48406300       1.10352300       0.94178000
C       -0.95565200      -0.32933700       1.07754600
C        0.57360000      -0.43922500       0.93916400
C        1.08594000      -0.12309700      -0.44127000
C        1.84142800      -0.95692900      -1.16679700
C        2.36907900      -0.64346300      -2.53170000
H       -3.33929300       2.21584200       1.04207200
H       -3.27283700       0.84017200       2.13770800
H       -3.52119300       0.58074500       0.41679400
H       -0.98007000       1.74832900       1.66998000
H       -1.22906700       1.49903500      -0.04658400
H       -1.43905400      -0.96909700       0.33237400
H       -1.24652900      -0.72610000       2.05684900
H        0.88701000      -1.45024700       1.22111000
H        1.04149700       0.24337300       1.66270500
H        0.82381200       0.85198200      -0.85216000
H        2.10529700      -1.93337900      -0.75948900
H        2.05821500       0.34468100      -2.86314500
H        2.01913000      -1.37444400      -3.26265100
H        3.45980300      -0.68071600      -2.54585400
