15
Properties=species:S:1:pos:R:3 pbc="F F F"
C       -1.19998600       1.17897100      -0.69949000
O       -1.68251300       0.41237300       0.39278300
C       -0.85480700      -0.40950500       1.07856500
C        0.47224700      -0.64470200       0.96792200
C        1.51226600      -0.05150800       0.03267500
N        1.44368200      -0.62818800      -1.32338200
H       -2.07256100       1.59743600      -1.21368000
H       -0.62784500       0.55722000      -1.39919800
H       -0.57274900       2.01261200      -0.34946500
H       -1.41745700      -0.95351100       1.84793500
H        0.85862300      -1.38815900       1.66250500
H        2.50911700      -0.22724700       0.48555000
H        1.41194900       1.04209500      -0.04598800
H        1.43711800      -1.64350100      -1.27262800
H        2.24981700      -0.33815300      -1.87165600
