17
Properties=species:S:1:pos:R:3 pbc="F F F"
C       -2.01546700      -0.37876300       0.47635200
C       -0.50522900      -0.31325700       0.24308000
O       -0.28566900      -0.54580700      -1.16188700
C        1.06327900      -0.78001100      -1.52076400
C        0.08932600       1.04606400       0.70205600
N        1.49689000       0.92447200       1.09704100
H       -2.41683200      -1.32669300       0.12507900
H       -2.52768300       0.41796000      -0.05951700
H       -2.25250700      -0.28046600       1.53436900
H       -0.01150300      -1.13293500       0.81840000
H        1.08390000      -1.06715000      -2.57781200
H        1.50228200      -1.59709300      -0.91998600
H        1.68657900       0.11944200      -1.38606100
H       -0.52838500       1.44686800       1.53378300
H        0.01443200       1.77480400      -0.11477700
H        1.60007500       0.26999600       1.86878900
H        1.86530700       1.82621200       1.38920200
