17
Properties=species:S:1:pos:R:3 pbc="F F F"
C        1.33468400       0.56858700      -1.37289900
C        0.76164400      -0.63864900      -0.60974300
C       -0.78692200      -0.63871200      -0.54596200
C       -1.41600400       0.57564700       0.15116600
N       -1.06940800       0.62947800       1.57862000
O        1.31697300      -0.70620300       0.70269000
H        2.41738000       0.49227100      -1.43450700
H        1.09747000       1.50563700      -0.87322400
H        0.93914800       0.61626500      -2.38603100
H        1.07801600      -1.56304600      -1.13470600
H       -1.18248200      -0.69789000      -1.56592300
H       -1.11343400      -1.54975000      -0.03371300
H       -2.51546000       0.53960100       0.00595200
H       -1.07576700       1.50653700      -0.32275200
H       -1.42276600      -0.19473600       2.06017900
H       -1.47645300       1.45451700       2.01293900
H        0.84400200      -0.06736000       1.26455800
