13
Properties=species:S:1:pos:R:3 pbc="F F F"
C       -1.63389100       0.55271200       0.81016500
O       -0.21788900       0.51999700       0.76178000
C        0.37799400      -0.16689000      -0.24465800
C       -0.28432300      -0.83230800      -1.21979900
C        1.87997700      -0.11122800      -0.16285800
H       -1.92108700       1.14793400       1.68211600
H       -2.04916200      -0.46095100       0.91196300
H       -2.04952600       1.01654700      -0.09671800
H       -1.36152000      -0.86765100      -1.27189000
H        0.27418600      -1.35321900      -1.98310500
H        2.19666800       0.47436500       0.69553100
H        2.30758200       0.33823700      -1.05827100
H        2.30742700      -1.10895700      -0.07096600
