18
Properties=species:S:1:pos:R:3 pbc="F F F"
C        0.60232200       2.11653900       0.68383900
C       -0.43595300       1.31375600      -0.09336200
C        0.16752900       0.12050600      -0.82355600
C       -0.69107200      -1.04417900      -1.22592300
C        0.36489600      -1.22178400      -0.17162000
C       -0.01747700      -1.49903700       1.26646100
H        0.14022300       2.96221700       1.18917700
H        1.37331500       2.50380100       0.02038700
H        1.09027500       1.50091800       1.43647100
H       -0.92404200       1.97098200      -0.82382800
H       -1.22397500       0.97632500       0.58662300
H        0.94117400       0.39804000      -1.54306300
H       -0.52670300      -1.49369500      -2.20071900
H       -1.72702000      -1.04071100      -0.90241800
H        1.25662700      -1.76282900      -0.49551300
H       -0.92759900      -0.97459500       1.54724400
H        0.77380900      -1.19071500       1.94964600
H       -0.18755200      -2.56453800       1.42095600
