17
Properties=species:S:1:pos:R:3 pbc="F F F"
C       -1.79610500      -0.68833100      -1.46770900
C       -0.28074900      -0.67934200      -1.31625500
C        0.23783800       0.31022500      -0.24853100
C       -0.17466300      -0.11839300       1.18535100
O        0.27482600       0.81424300       2.15781600
N        1.70824900       0.43592700      -0.38313300
H       -2.09643900      -1.36588300      -2.26411900
H       -2.17096500       0.30316700      -1.71434800
H       -2.29130500      -1.01300200      -0.55455500
H        0.17363800      -0.41984500      -2.27680900
H        0.07088300      -1.68928500      -1.07549200
H       -0.18889300       1.30694900      -0.45151900
H        0.23292700      -1.12708600       1.41216600
H       -1.26832400      -0.17824900       1.27574700
H        1.23008800       0.93090800       2.07316200
H        2.17031800      -0.43618100      -0.13577500
H        2.06379000       1.17812800       0.21381800
