21
Properties=species:S:1:pos:R:3 pbc="F F F"
C       -1.75790200       0.38066200      -1.36179400
C       -0.23895600       0.28416000      -1.42554100
C        0.43890800      -0.16225600      -0.08866500
C        0.10196900       0.85353600       1.00069000
C       -0.45008900       0.60268700       2.18752800
C        0.00465100      -1.59359700       0.28358700
C        1.97603100      -0.14330700      -0.30052400
H       -2.15571400       0.75062500      -2.30483900
H       -2.07422200       1.05992200      -0.57330100
H       -2.21135200      -0.58899700      -1.16872200
H        0.16957500       1.25961700      -1.71194000
H        0.05001600      -0.41550200      -2.21714500
H        0.36558800       1.88397900       0.75441000
H       -0.73263600      -0.39690800       2.49476500
H       -0.63652000       1.40398400       2.89276900
H       -1.06459600      -1.64919100       0.47272500
H        0.52287700      -1.93726500       1.17625600
H        0.23970100      -2.28267800      -0.52526300
H        2.32162900       0.85511700      -0.56186500
H        2.26297400      -0.82035800      -1.10306800
H        2.49500600      -0.45365300       0.60352100
