17
Properties=species:S:1:pos:R:3 pbc="F F F"
N       -0.25822100       1.95321500       0.87347000
C       -0.54983700       1.38633000      -0.44524300
C       -0.01209500      -0.05398200      -0.59464800
C       -0.60685700      -0.97660900       0.49535000
O       -0.34315100      -2.34553900       0.22906200
C        1.52285900      -0.09191100      -0.59841900
H       -0.63208700       2.89581400       0.94601800
H        0.74490700       1.99224300       1.03503900
H       -0.13734000       2.01351700      -1.26408800
H       -1.64123000       1.37736000      -0.58348700
H       -0.35506500      -0.42578400      -1.57276200
H       -0.20739800      -0.69801400       1.49134400
H       -1.69960600      -0.85674700       0.53384700
H        0.60847000      -2.47898400       0.13063100
H        1.93144900       0.21381100       0.36340700
H        1.92694200       0.57185200      -1.36066700
H        1.88929400      -1.09622400      -0.80830400
