11
Properties=species:S:1:pos:R:3 pbc="F F F"
O       -2.47376500       1.05620800       0.18057300
N       -1.10612700       1.20322700       0.04353700
C       -0.44349200       0.14992900       0.40119800
C        1.06558500       0.16183100       0.34280600
C        1.62098900      -1.03187600      -0.29951300
C        2.08706400      -2.01498900      -0.82396000
H       -2.88116200       1.88768900      -0.12901300
H       -0.94973800      -0.75524800       0.76825700
H        1.47307200       0.22552500       1.36505700
H        1.41535800       1.05762600      -0.18513800
H        2.49459700      -2.87721700      -1.29169500
