17
Properties=species:S:1:pos:R:3 pbc="F F F"
C       -2.80780200      -0.28655300       0.72485500
C       -1.28602000      -0.26400200       0.77759900
C       -0.66908000       0.54060800      -0.37812500
C        0.84489500       0.56747000      -0.32749600
C        1.54483400       1.71097900      -0.20947000
C        1.51972500      -0.70445200      -0.42024300
C        2.06425700      -1.78387500      -0.50558300
H       -3.21299600      -0.86238900       1.55407600
H       -3.16255700      -0.73584800      -0.20054100
H       -3.21789400       0.71971300       0.78452400
H       -0.90080200      -1.28774300       0.74926700
H       -0.96023200       0.16325500       1.73125100
H       -1.04978700       1.56651500      -0.36180300
H       -0.98931000       0.10019100      -1.33058500
H        1.03968300       2.66654600      -0.13857200
H        2.62686000       1.70874300      -0.18030200
H        2.56217700      -2.72003400      -0.57654500
