16
Properties=species:S:1:pos:R:3 pbc="F F F"
C       -2.24752300      -0.04322200       0.17333100
C       -0.75614300      -0.07109700       0.05689000
C        0.02340900      -1.16195000       0.00502300
C        1.48272200      -0.82217800      -0.10605900
C        1.52140200       0.72047400      -0.12298200
C        0.05952500       1.19740200      -0.01284600
H       -2.66439300      -1.04785200       0.17469200
H       -2.69620400       0.51135400      -0.65275000
H       -2.55887200       0.45565400       1.09323300
H       -0.33859000      -2.18509400       0.03887900
H        1.92924600      -1.25215100      -1.01258500
H        2.05753400      -1.23557700       0.73342600
H        1.98652900       1.09108900      -1.04064300
H        2.12411900       1.10831100       0.70297000
H       -0.23695700       1.81396200      -0.87109700
H       -0.10276000       1.82373400       0.87372500
