15
Properties=species:S:1:pos:R:3 pbc="F F F"
C       -0.11256100       1.48735300      -1.62543400
C       -0.68632000       0.75627700      -0.67058200
C       -0.02570700       0.32566700       0.62035300
C       -0.18580400      -1.16677900       0.91291800
C       -0.65217100      -2.08891800       0.07140900
N        1.40090200       0.71006800       0.67030900
H       -0.66179800       1.77903600      -2.51269300
H        0.91506100       1.81976100      -1.54266400
H       -1.72705900       0.45158000      -0.78488500
H       -0.53378600       0.86950500       1.44614800
H        0.15788600      -1.47973500       1.90072600
H       -0.99176800      -1.83309600      -0.92548000
H       -0.70747500      -3.13262200       0.35892600
H        1.91829000       0.21820100      -0.05524300
H        1.79970800       0.45529200       1.57102200
