15
Properties=species:S:1:pos:R:3 pbc="F F F"
C       -2.32014800       0.04154900       0.26417800
C       -0.81698600       0.08845200       0.21402000
C       -0.11208900      -0.49068600      -0.79659900
C        1.33712200      -0.47883300      -0.89882900
C        2.01735400      -1.05551600      -1.90422800
C       -0.16883700       0.78031000       1.29586200
C        0.31914900       1.37604800       2.23349500
H       -2.72408400      -0.50245700      -0.58657300
H       -2.74217200       1.04744000       0.26102000
H       -2.66534700      -0.44334300       1.17834600
H       -0.66319700      -0.99945000      -1.58661700
H        1.88074600       0.03164600      -0.10480400
H        1.50444000      -1.56993800      -2.70895000
H        3.09883700      -1.02404600      -1.94136800
H        0.77739200       1.89220300       3.04155200
