18
Properties=species:S:1:pos:R:3 pbc="F F F"
C        0.36088600      -0.92583000      -1.78908000
C       -0.19573400       0.38765100      -1.25052700
C        0.21257300       0.71817300       0.20633300
C       -0.21198800      -0.34410700       1.24774000
C       -1.72108600      -0.50365400       1.38035700
O        1.62686200       0.92501100       0.28829300
H        0.06994500      -1.06547000      -2.82785400
H       -0.00849700      -1.77873100      -1.22333300
H        1.44916100      -0.94184900      -1.74767600
H       -1.28820700       0.37308500      -1.32195000
H        0.14301000       1.20706900      -1.89178800
H       -0.25263100       1.68504900       0.47869100
H        0.20611200      -0.05304400       2.21581700
H        0.23985800      -1.31060100       0.99937500
H       -2.19573100       0.44712300       1.61632700
H       -1.96557500      -1.20476200       2.17547000
H       -2.16468000      -0.87828400       0.46014500
H        2.08442700       0.12692600      -0.00852000
