16
Properties=species:S:1:pos:R:3 pbc="F F F"
C        0.95807800      -1.75754000      -0.23149900
C        0.37508500      -0.40133700       0.19213000
C       -1.16003700      -0.46039200       0.14194000
O       -1.87469700      -0.36781800       1.10565200
C        0.89857800       0.73605800      -0.71648400
C        0.43975000       2.11463300      -0.26059300
H        2.04604200      -1.73165500      -0.21085500
H        0.64820700      -2.01778800      -1.24260300
H        0.62545800      -2.54859400       0.43712100
H        0.67607000      -0.19529900       1.22840400
H       -1.59484700      -0.61060700      -0.89811100
H        0.56541100       0.55655400      -1.74499500
H        1.99272500       0.69939800      -0.73549700
H       -0.64585000       2.18821800      -0.26265000
H        0.83119700       2.88765200      -0.91839300
H        0.78442600       2.32613700       0.74939600
