21
Properties=species:S:1:pos:R:3 pbc="F F F"
C       -0.22435900       1.47120400       1.80207300
C       -0.34483600       0.05310800       1.24255100
C        0.04985800      -0.03064000      -0.22110800
C       -0.82511000       0.03653600      -1.24139300
C       -2.31154700       0.19991600      -1.14827600
C        1.53634000      -0.17624700      -0.50194700
C        2.07479200      -1.57363000      -0.19325300
H       -0.48711800       1.49242100       2.85823300
H       -0.88634800       2.15547100       1.27597700
H        0.79221900       1.84644600       1.70105400
H       -1.36987900      -0.30205700       1.38498100
H        0.29877700      -0.61390900       1.82729700
H       -0.43189600      -0.02532600      -2.25674900
H       -2.67129200       0.17555300      -0.12307400
H       -2.82138000      -0.58740700      -1.70636300
H       -2.62350500       1.14910900      -1.58946300
H        2.09136100       0.55718600       0.09605100
H        1.73702300       0.05853100      -1.55236000
H        1.91782100      -1.83578900       0.85124600
H        3.14310400      -1.62589600      -0.39463200
H        1.58028800      -2.32580400      -0.80408500
