21
Properties=species:S:1:pos:R:3 pbc="F F F"
C        0.99327900      -1.53009000       1.77271800
C        0.87855300      -0.01008600       1.72702600
C       -0.52082000       0.49180900       1.33171800
C       -0.80031600       0.63967200      -0.16411300
C        0.11294400       1.42057100      -1.06643400
C       -0.03056800      -0.06365200      -1.24657800
C       -0.75231000      -0.61724400      -2.45731700
H        2.00003300      -1.83291500       2.05421100
H        0.76646600      -1.97887400       0.80845900
H        0.30216200      -1.94903800       2.50173400
H        1.63154600       0.39776900       1.04516300
H        1.12395600       0.38577800       2.71851900
H       -0.68894000       1.46831600       1.80413500
H       -1.27444300      -0.17635600       1.76471100
H       -1.86311100       0.77918800      -0.37496700
H        1.04595700       1.79155300      -0.65315600
H       -0.34124100       2.07329800      -1.80560600
H        0.82714900      -0.65751000      -0.93003900
H       -1.59452600       0.01313000      -2.73446300
H       -1.13394500      -1.61961200      -2.26353300
H       -0.08564700      -0.68060600      -3.31728800
