17
Properties=species:S:1:pos:R:3 pbc="F F F"
C       -0.81559200       2.46482800       0.01845900
C       -1.63402000       1.27244600      -0.45427200
C       -0.98362800      -0.07528500      -0.27749300
C        0.22376800      -0.31073900       0.24905000
C        0.80264400      -1.69119400       0.42871400
N        2.22877500      -1.71916100       0.08873300
H       -1.36477400       3.39012200      -0.14409100
H        0.12624200       2.53527800      -0.52140400
H       -0.58956500       2.39239200       1.08007600
H       -1.88589300       1.40237500      -1.51596800
H       -2.60072500       1.26501200       0.06829500
H       -1.58106500      -0.92162700      -0.62227800
H        0.84186600       0.51649900       0.59368900
H        0.21514800      -2.42776600      -0.15965700
H        0.69863000      -1.99676400       1.48476800
H        2.37312300      -1.42570900      -0.87378200
H        2.60655800      -2.65601600       0.20247800
