19
Properties=species:S:1:pos:R:3 pbc="F F F"
C        0.11433500      -2.25379600      -0.43084400
C       -0.30211500      -1.16398900      -1.40920400
C        0.23890400       0.24620000      -1.05993300
C       -0.25440400       0.70535300       0.25549400
C       -0.67315000       1.09993400       1.31970200
C       -1.17484900       1.56429900       2.60727500
C        1.77186000       0.32089100      -1.13849200
H       -0.34895300      -3.20273000      -0.69411100
H       -0.18862300      -1.99956800       0.58207500
H        1.19280400      -2.39789600      -0.43187000
H       -1.39504100      -1.11644800      -1.45141700
H        0.03577900      -1.42582600      -2.41796700
H       -0.16651600       0.94046200      -1.81985300
H       -2.24642300       1.76633400       2.55687200
H       -0.67162800       2.48353200       2.91265300
H       -1.00832800       0.81408500       3.38259100
H        2.23841700      -0.31304300      -0.38851700
H        2.11575100       1.33987700      -0.97614800
H        2.11927100      -0.00213100      -2.11829500
