14
Properties=species:S:1:pos:R:3 pbc="F F F"
C       -0.86238000      -0.12740200       1.53333700
C       -0.94888000      -0.44896500       0.04763200
O       -1.56876800      -1.40628900      -0.37168000
C       -0.19825700       0.48988100      -0.91645600
C        1.33571100       0.30951400      -0.83478600
O        1.86314800       0.79582100       0.38583500
H       -1.37705500      -0.88050600       2.12297900
H       -1.31031200       0.84470000       1.73755600
H        0.18102900      -0.07598700       1.84209800
H       -0.44964000       1.53258300      -0.69156300
H       -0.52932000       0.28625300      -1.93761400
H        1.81208300       0.83651500      -1.68646200
H        1.60372900      -0.75294300      -0.91123400
H        1.75728300       1.75496000       0.43264000
