17
Properties=species:S:1:pos:R:3 pbc="F F F"
C       -1.81606600      -0.30770000      -0.76150100
C       -0.28968100      -0.25445900      -0.61555300
C        0.23917400       0.98174200       0.12281100
C       -0.55438100       1.89377200       0.69800600
C        1.73719200       1.12026600       0.14018600
C        0.21363100      -1.48977400       0.01751500
C        0.61531200      -2.51010000       0.52489300
H       -2.18464400       0.57541600      -1.27919600
H       -2.30595400      -0.36679600       0.20736400
H       -2.10680500      -1.18351500      -1.33704300
H        0.14467700      -0.22381600      -1.63405000
H       -1.63275900       1.80216100       0.69759000
H       -0.13156800       2.75800500       1.19574100
H        2.19813800       0.25938400       0.62454300
H        2.04781000       2.01894700       0.66696300
H        2.13392800       1.16365600      -0.87532900
H        0.96609600      -3.40592600       0.97527300
