16
Properties=species:S:1:pos:R:3 pbc="F F F"
C       -2.43583600      -1.08553700       0.31080600
C       -1.45679800      -0.33980600       0.82350700
C       -0.60887900       0.61907500       0.03152000
C        0.88587200       0.41809000       0.26846900
C        1.66549000      -0.54401500      -0.57342300
C        1.87803500       0.92925700      -0.73119200
H       -3.02168700      -1.74971400       0.93460400
H       -2.67792200      -1.05500800      -0.74540000
H       -1.24017100      -0.40250700       1.89078100
H       -0.87822500       1.64572700       0.32278300
H       -0.83449100       0.52932600      -1.03500600
H        1.18458800       0.48556400       1.31634500
H        1.14255000      -1.06474900      -1.36872200
H        2.45134200      -1.12216500      -0.09781600
H        1.49923100       1.39942800      -1.63312600
H        2.80748800       1.35171700      -0.36256200
