15
Properties=species:S:1:pos:R:3 pbc="F F F"
O       -2.24460700      -0.03681700       0.05840400
C       -0.97886200      -0.01268700      -0.58138300
C        0.01125700       1.05927900      -0.07178300
N        0.83528900      -0.01030700       0.54760400
C       -0.00530300      -1.07733100      -0.05569000
C        2.26458100      -0.02096400       0.25811900
H       -2.71110400       0.79516300      -0.09602400
H       -1.11738800      -0.01314600      -1.68822400
H       -0.38190900       1.78767600       0.65556200
H        0.52666100       1.61674500      -0.87282900
H       -0.41510200      -1.78264900       0.68161000
H        0.50322400      -1.65510700      -0.84603200
H        2.73831200       0.86240800       0.69580800
H        2.49215000      -0.02461500      -0.82471200
H        2.72495000      -0.90958100       0.69880600
