21
Properties=species:S:1:pos:R:3 pbc="F F F"
C       -1.94435900      -0.07338200      -0.61130500
C       -0.42330500      -0.03381000      -0.69312000
C        0.40729700      -1.12998300       0.03971300
C       -0.33728900      -2.03960500       1.01097100
C        1.26150700      -0.02381300       0.69702200
C        0.30579000       1.05291700       0.14243300
C        0.92917000       2.21934400      -0.61514100
H       -2.34109500      -0.95325100      -1.11554500
H       -2.37431800       0.80635600      -1.08796100
H       -2.28935900      -0.09332500       0.42053300
H       -0.12629500       0.02004200      -1.75070700
H        0.98123500      -1.75767900      -0.65860700
H       -0.89283700      -1.46563900       1.74954200
H        0.36322200      -2.67889800       1.54618700
H       -1.04060000      -2.68281600       0.48467300
H        2.27408500       0.03941300       0.29092700
H        1.33492100      -0.06823000       1.78668100
H       -0.34731700       1.44427300       0.93538000
H        1.58040900       1.86961500      -1.41442400
H        1.52450400       2.84175100       0.05123200
H        0.16058000       2.84837600      -1.06134300
