10
Properties=species:S:1:pos:R:3 pbc="F F F"
N       -2.09187700       0.92144100       0.93383600
C       -0.94730700       0.82332900       0.88716900
C        0.51135200       0.72257200       0.83861900
C        1.03497000       0.33137700      -0.55433500
C        0.65020200      -1.02582500      -0.94185700
N        0.36767600      -2.09662200      -1.25086100
H        0.84230300      -0.00725900       1.58567700
H        0.93690400       1.69081700       1.12703300
H        2.12922200       0.39911000      -0.56240300
H        0.66567600       1.03488000      -1.30870600
