16
Properties=species:S:1:pos:R:3 pbc="F F F"
C       -1.41623000      -1.13729700      -0.01389100
C        0.11443900      -1.07723000      -0.05373700
C        0.61027000       0.07602500      -0.96291300
C        0.21655600       1.40572700      -0.49731700
C       -0.09862500       2.51226300      -0.12793100
C        0.70763200      -0.97035200       1.35498400
H       -1.82603900      -1.27210200      -1.01318300
H       -1.82984100      -0.21997700       0.39828900
H       -1.75328800      -1.96699200       0.60429100
H        0.47979400      -2.01401400      -0.50630500
H        0.22404900      -0.07005000      -1.98025600
H        1.70528800       0.03767800      -1.03540200
H       -0.37626600       3.48218400       0.20351900
H        0.39441300      -0.04847500       1.83907100
H        1.79542500      -0.97926200       1.32066500
H        0.38221200      -1.80381000       1.97413800
