21
Properties=species:S:1:pos:R:3 pbc="F F F"
C       -1.66107700       1.39412200      -0.67641000
C       -0.40980200       1.04003700       0.13825200
C        0.22054300      -0.27986800      -0.36015800
C        1.34908800      -0.89147600       0.49639900
C        0.60181200      -2.23039100       0.51364900
C       -0.60266900      -1.57101600      -0.16889400
C        0.61072700       2.18505400       0.10025700
H       -2.39665800       0.59366400      -0.62800900
H       -1.41312600       1.55802900      -1.72348900
H       -2.12658900       2.30211300      -0.29805800
H       -0.71797900       0.89515400       1.18665600
H        0.53521800      -0.15635800      -1.40651300
H        1.44455600      -0.43521500       1.48511200
H        2.33968200      -0.90840800       0.03416100
H        0.41040400      -2.65121600       1.50420400
H        1.07798000      -3.00420300      -0.09332900
H       -1.46207500      -1.44694400       0.49501300
H       -0.95132100      -2.05330100      -1.08609800
H        0.94205600       2.38022600      -0.91791300
H        1.48787400       1.94433800       0.69738200
H        0.17824200       3.10335300       0.49230400
