13
Properties=species:S:1:pos:R:3 pbc="F F F"
C       -2.22231800      -0.31695300       0.40242800
C       -0.75944300      -0.36361900       0.03288400
C       -0.22868300      -1.48532500      -0.49287400
C       -0.02775800       0.89471200       0.29441800
N        1.23018600       1.20664300       0.14208400
O        2.04547200       0.21013100      -0.34807100
H       -2.71419300      -1.26615600       0.20658400
H       -2.74170600       0.45763900      -0.16352700
H       -2.35035600      -0.07684100       1.45878300
H       -0.85381600      -2.35800400      -0.64837700
H        0.81084400      -1.55588700      -0.77545500
H       -0.64292000       1.71393700       0.68936100
H        2.94627500       0.58487700      -0.39852900
