18
Properties=species:S:1:pos:R:3 pbc="F F F"
C       -0.97754400       2.30269900      -0.96260100
C       -1.29302800       0.81457400      -0.88349900
C       -0.76715100       0.13314000       0.39433600
C        0.73590600       0.08760800       0.47338800
C        1.50766900      -1.00435200       0.56184200
C        1.06065800      -2.43258400       0.59062100
H       -1.39981500       2.73671700      -1.86673700
H        0.09536100       2.48127000      -0.97744000
H       -1.39231700       2.83628200      -0.10952300
H       -0.88312500       0.30646000      -1.76189500
H       -2.37924600       0.67669800      -0.92716500
H       -1.18374000      -0.87666300       0.45227300
H       -1.15247400       0.67867800       1.26653000
H        1.23314300       1.05788200       0.46178000
H        2.58739500      -0.86133400       0.61990400
H       -0.01817300      -2.53426000       0.50803300
H        1.37647100      -2.91588800       1.51699900
H        1.51746000      -2.99234700      -0.22728400
