14
Properties=species:S:1:pos:R:3 pbc="F F F"
C        0.95713100       0.20122900      -1.34060100
C        0.35907000      -0.61195300      -0.18931000
C       -1.18140200      -0.57663600      -0.21050200
O       -1.83471400      -0.12298500      -1.11250700
C        0.89332800      -0.17094000       1.19819600
O        0.38946100       1.09232900       1.58157100
H        2.03859800       0.08467100      -1.38021300
H        0.73465600       1.26081700      -1.22595900
H        0.53948900      -0.12109900      -2.29098600
H        0.64451300      -1.66996800      -0.32387200
H       -1.67409400      -1.03731300       0.70181000
H        2.00378100      -0.15825300       1.18324800
H        0.58309900      -0.89544400       1.96739100
H        0.52321700       1.73163800       0.86936700
