17
Properties=species:S:1:pos:R:3 pbc="F F F"
C       -1.78873300       2.20202400       0.01184600
C       -0.72763000       1.43621100      -0.26007700
C        0.05580300       0.71301000       0.76992800
C        1.52483900       0.47106200       0.57430200
C        0.58496200      -0.69901600       0.52380800
C        0.33230500      -1.40791600      -0.75355700
C        0.04531500      -2.71058600      -0.83759800
H       -2.32481600       2.71577400      -0.77578200
H       -2.14625400       2.33247100       1.02662800
H       -0.39365900       1.32971900      -1.29229800
H       -0.26245300       0.90133400       1.79656900
H        2.17467800       0.56368600       1.43926300
H        1.96727100       0.80092300      -0.36067800
H        0.58038200      -1.34107000       1.40625700
H        0.39506800      -0.81308800      -1.66482300
H       -0.02161200      -3.33277700       0.04723300
H       -0.12978000      -3.18571100      -1.79427900
