16
Properties=species:S:1:pos:R:3 pbc="F F F"
C       -0.08876900      -2.26550000       0.17316600
C        0.31895900      -0.97823600       0.88205400
C        0.81990300       0.09042300      -0.08403500
C        0.74264300       1.55524600       0.30511200
C       -0.11576900       1.01823300      -0.80401700
O       -1.50714500       0.92010700      -0.62454300
H       -0.42889700      -3.01096500       0.88895300
H        0.74860600      -2.68724800      -0.37871000
H       -0.89492300      -2.08250300      -0.53337800
H        1.10208300      -1.19970400       1.61664400
H       -0.53117700      -0.58992000       1.45554500
H        1.71957900      -0.19778200      -0.63111200
H        1.58686700       2.19212700       0.05878200
H        0.26448900       1.78824000       1.25105300
H        0.12537800       1.30604500      -1.83191400
H       -1.69663600       0.59985400       0.26679500
