11
Properties=species:S:1:pos:R:3 pbc="F F F"
O       -0.70715100      -0.81523700      -1.10312300
C       -1.61558700      -0.19543800      -0.23517800
C       -0.91951300       0.60368000       0.82559900
C        0.40692200       0.74075200       0.99115500
C        1.43148600       0.14683100       0.18044800
N        2.34128000      -0.27415400      -0.39459100
H       -1.17149400      -1.32729600      -1.77638100
H       -2.27548400      -0.95156000       0.25310100
H       -2.30946000       0.47264700      -0.79885300
H       -1.57810600       1.11760500       1.52617700
H        0.78295100       1.35462400       1.81092800
