14
Properties=species:S:1:pos:R:3 pbc="F F F"
C        0.59056500      -0.18492000       1.54733500
C        0.30269700       0.09574300       0.07852500
C       -1.14894600       0.43237800      -0.28546600
O       -2.00951400      -0.67946800      -0.06482000
C        1.20852000      -0.44666600      -0.96592700
O        1.27821000       0.92313800      -0.58387800
H        1.65464600      -0.33411700       1.71166900
H        0.06661300      -1.08004900       1.88549700
H        0.26468400       0.64545200       2.17375200
H       -1.50193700       1.30145900       0.30652200
H       -1.22210300       0.69982000      -1.34773600
H       -2.04554400      -0.88835400       0.87785700
H        0.83613700      -0.62380800      -1.98277400
H        2.08092800      -1.04897000      -0.68200400
