17
Properties=species:S:1:pos:R:3 pbc="F F F"
C       -0.86998000       0.50221100      -1.97194700
C       -1.33461300       0.97558600      -0.60038200
C       -0.83210300       0.10581000       0.56030300
N        0.63183300       0.18743500       0.71853000
C        1.24697800      -0.84459100       1.55380900
C        1.42570900      -0.85898500       0.07577000
H       -1.28682500       1.12939700      -2.75784900
H       -1.18325100      -0.52325100      -2.16092000
H        0.21375100       0.54080700      -2.05236200
H       -2.43024600       0.99129800      -0.57576400
H       -1.00823000       2.00867300      -0.44419200
H       -1.16825900      -0.94141100       0.42077100
H       -1.29489300       0.46129800       1.49469300
H        0.59078100      -1.59550900       2.00163900
H        2.06205100      -0.50746700       2.19708100
H        0.89319900      -1.62110400      -0.49886800
H        2.37314600      -0.53495800      -0.35925300
