17
Properties=species:S:1:pos:R:3 pbc="F F F"
C       -2.90126700       0.35392600      -0.27199100
C       -1.57944900       0.18510900      -0.10022900
C       -0.62489300       0.26411200      -1.19815300
C        0.71889900       0.11530700      -1.16204600
C        1.63882200      -0.17014000      -0.02890700
C        1.45038500       0.37966300       1.36247100
C        1.29516700      -1.08217200       1.12179400
H       -3.58895200       0.29209100       0.56180300
H       -3.32020900       0.55672600      -1.25091100
H       -1.20579600      -0.01834500       0.90051800
H       -1.06727500       0.47356100      -2.17273900
H        1.23616700       0.21785700      -2.11719300
H        2.68067000      -0.22958600      -0.34736800
H        0.56174400       0.96808100       1.56299800
H        2.33956300       0.71616500       1.88702000
H        0.29906700      -1.50950900       1.15647100
H        2.07904400      -1.74186600       1.48176400
