15
Properties=species:S:1:pos:R:3 pbc="F F F"
N        0.61889700      -0.70558800       1.42991300
C        0.05623100       0.14921300       0.36570800
C       -1.45581100       0.12680700       0.40022100
C       -2.23170900       1.14916300       0.03828000
C        0.58306800      -0.29615500      -1.03643400
O        2.00191900      -0.31909200      -1.04718300
H        1.61363000      -0.84271100       1.25369900
H        0.17338900      -1.62070700       1.41799600
H        0.40841700       1.18566900       0.53539000
H       -1.91724100      -0.80916500       0.71671900
H       -1.81137900       2.09769700      -0.27716500
H       -3.31179700       1.07061100       0.05768500
H        0.20353900       0.38718200      -1.82340100
H        0.23806800      -1.31111700      -1.27976100
H        2.34506700       0.56022100      -0.83973800
