14
Properties=species:S:1:pos:R:3 pbc="F F F"
C       -1.63959000      -0.64193500      -0.42095800
C       -0.10191500      -0.62575500      -0.40020400
C        0.43184800       0.72572700       0.12463600
O        1.12526500       0.85571100       1.11257300
O        0.07595600       1.80809700      -0.63639700
C        0.46044400      -1.78667100       0.42742400
H       -2.03985100       0.17347700      -1.02320200
H       -2.04167000      -0.54631700       0.58479500
H       -2.00437100      -1.57687000      -0.84008900
H        0.25131200      -0.73156100      -1.44003100
H       -0.48467300       1.56417300      -1.38512500
H        0.13980500      -1.70615600       1.46265900
H        1.54700600      -1.77396500       0.41104900
H        0.11795600      -2.74143100       0.03514700
