15
Properties=species:S:1:pos:R:3 pbc="F F F"
O       -1.65991400      -0.38687600      -0.43601500
C       -0.30607600      -0.23343000      -0.83636800
C        0.65288300      -1.33837700      -0.32749400
C        1.39359300      -0.30151200       0.53417600
C        0.46613200       0.82050700       0.01515900
N       -0.29511100       1.52253600       1.04794000
H       -2.02196000      -1.19772100      -0.81703800
H       -0.25823700      -0.06940200      -1.93869500
H        1.26340600      -1.80751500      -1.10383300
H        0.16283600      -2.12961500       0.24386500
H        2.45209500      -0.17729600       0.29118100
H        1.31069000      -0.48068100       1.60755100
H        0.99508200       1.56566700      -0.60332400
H       -0.87781100       0.85247000       1.54688600
H       -0.92020200       2.19821400       0.61310800
