14
Properties=species:S:1:pos:R:3 pbc="F F F"
O       -1.19336900      -0.73981300      -1.38485500
C       -1.52228400      -1.00394100      -0.03307800
C       -0.95492200       0.08164100       0.88317200
C        0.57734700       0.07922300       0.99010400
C        1.29632300       0.65889700      -0.23232500
O        2.31854900       1.29424300      -0.14445500
H       -1.59153500      -1.40863100      -1.95684400
H       -1.13451900      -2.00219100       0.26460000
H       -2.62620900      -1.04788500       0.08252700
H       -1.37707600      -0.06270400       1.88391900
H       -1.30137100       1.06108500       0.53987800
H        0.93239200      -0.95033300       1.12839500
H        0.89292300       0.63416500       1.87822900
H        0.82517300       0.44613000      -1.23346100
