17
Properties=species:S:1:pos:R:3 pbc="F F F"
C       -0.41791500      -1.34872300      -2.28150100
C       -0.52168800      -0.44071600      -1.06227600
C        0.81449400      -0.31060400      -0.32217500
C        0.78372100       0.50657700       0.96706400
C       -0.23484900       1.55390800       1.25812600
N       -0.25130800       0.27974700       1.98010500
H       -1.37552600      -1.42301900      -2.79246400
H       -0.11056200      -2.35310200      -1.99713400
H        0.31256900      -0.96681400      -2.99202400
H       -1.28620200      -0.83330500      -0.38265500
H       -0.86854900       0.54883400      -1.37778600
H        1.55527100       0.13306700      -0.99880600
H        1.19302300      -1.31387700      -0.09016700
H        1.78135300       0.65859600       1.39941200
H       -1.03823300       1.73428800       0.54200700
H        0.04163800       2.42324100       1.85729500
H       -0.98820200      -0.32879200       1.61615600
