12
Properties=species:S:1:pos:R:3 pbc="F F F"
O       -1.86722800      -0.57839800       1.16461700
C       -0.69335100      -0.31725300       1.19884900
C        0.23942500      -0.49581700      -0.01643400
C       -0.22419400       0.46956300      -1.13758600
O        0.48616700       1.29880400      -1.63585400
C        1.71489900      -0.30780100       0.32988700
H       -0.20379500       0.09958500       2.13039500
H        0.06836000      -1.51367400      -0.40245500
H       -1.30048100       0.33102700      -1.45239200
H        1.89337300       0.68941300       0.72619200
H        2.33399500      -0.42871800      -0.55522500
H        2.03636500      -1.03303000       1.07508200
