11
Properties=species:S:1:pos:R:3 pbc="F F F"
O       -2.49355100       0.12748000       0.13557900
N       -1.14222200      -0.09956100      -0.03985300
C       -0.39981300       0.81305500       0.49965800
C        1.10422000       0.74330000       0.41685200
C        1.61313200      -0.42874000      -0.29491400
C        2.06361300      -1.38752900      -0.87470700
H       -2.96410200      -0.60874600      -0.30027100
H       -0.83565900       1.67052300       1.03730400
H        1.52843700       0.75794300       1.43331300
H        1.48795800       1.65433600      -0.06936900
H        2.44041900      -2.23748800      -1.38797500
