16
Properties=species:S:1:pos:R:3 pbc="F F F"
C       -2.00264300       0.87782800       0.75018100
C       -0.50047200       0.74894700       0.61917000
C        0.23733800       1.52867200      -0.42874200
C        0.10549500       0.03733400      -0.56085500
C        1.32823100      -0.85325800      -0.38402800
O        0.96581500      -2.16681500       0.02185000
H       -2.27044900       1.74231600       1.35729500
H       -2.43098200      -0.00360600       1.22655400
H       -2.47332600       0.99547000      -0.22358600
H        0.02379300       0.62008100       1.56730100
H        1.21323600       1.93140100      -0.17385800
H       -0.34071000       2.14887900      -1.10619700
H       -0.59878300      -0.30668300      -1.32239900
H        1.90611500      -0.90074700      -1.33419500
H        2.00142500      -0.44399100       0.38370500
H        0.23546900      -2.48573400      -0.52377900
