21
Properties=species:S:1:pos:R:3 pbc="F F F"
C       -0.92105300       1.12698200       1.52390900
C       -0.30103000      -0.24503600       1.25694900
C        0.17165500      -0.42500300      -0.17715200
C       -0.66161300      -0.69423500      -1.19922600
C       -2.14977500      -0.84849700      -1.11674300
C        1.66643000      -0.31999700      -0.42183300
C        2.24998400       1.05382800      -0.09551900
H       -1.25091300       1.20469900       2.55844300
H       -1.78231100       1.29616300       0.88174100
H       -0.20524100       1.92476200       1.33900300
H       -1.03776700      -1.01821400       1.50405400
H        0.54400600      -0.39495400       1.93699200
H       -0.23527900      -0.80686000      -2.19632800
H       -2.49790600      -0.94492200      -0.09127200
H       -2.47601900      -1.72860400      -1.67210700
H       -2.65722900       0.01020100      -1.56261000
H        1.88339600      -0.56524900      -1.46673300
H        2.18313100      -1.07401400       0.18760600
H        1.78606300       1.83015900      -0.69983200
H        3.32026200       1.07028000      -0.29252000
H        2.09821100       1.30830300       0.95125500
