16
Properties=species:S:1:pos:R:3 pbc="F F F"
C       -0.75508800      -1.17143100      -2.12794000
C       -1.08035500      -1.20767700      -0.63536000
O       -0.56505800      -0.08050000       0.07586700
C        0.83965800      -0.09242200       0.26929100
C        1.27049800       1.02990500       1.16751400
C        0.44754200       1.92251400       1.71676500
H       -1.24012000      -1.99920100      -2.64194600
H        0.31562700      -1.25005200      -2.30747500
H       -1.10233500      -0.24414600      -2.57801300
H       -0.69487200      -2.14556100      -0.18248400
H       -2.17198700      -1.19640800      -0.48845600
H        1.37525400      -0.01490800      -0.70588400
H        1.16026400      -1.06920400       0.70302800
H        2.34265000       1.08826200       1.36174400
H       -0.61879100       1.87786400       1.53284400
H        0.82124100       2.71202000       2.35808900
