13
Properties=species:S:1:pos:R:3 pbc="F F F"
N       -1.47093100      -0.41733500      -0.38509500
C       -0.00068800      -0.43290100      -0.35269700
C        0.57427500       0.74352200      -1.06226300
C        0.99439900       1.70045000      -1.66907100
C        0.54405400      -0.53075300       1.06118600
C       -0.18463400      -0.82186800       2.13732000
H       -1.79983700      -0.37698200      -1.34714500
H       -1.82387100       0.40241500       0.10443800
H        0.33850100      -1.33611200      -0.90495000
H        1.38026700       2.54351600      -2.18826600
H        1.61662200      -0.36737800       1.16201100
H       -1.25178200      -0.99524400       2.06611300
H        0.27218800      -0.89957200       3.11661500
