15
Properties=species:S:1:pos:R:3 pbc="F F F"
N       -1.52111600       0.12422000       1.37523100
C       -0.25385000       0.74886100       0.99965600
C        0.36955300       0.11473600      -0.24661400
O        1.56561700       0.77748100      -0.63294000
C        0.32278800      -1.37053800      -0.49888400
C       -0.46377200      -0.41565900      -1.36373300
H       -1.92848700       0.59704700       2.17751800
H       -1.39116500      -0.85667600       1.60983800
H        0.48871700       0.71809500       1.83014600
H       -0.43683700       1.81476900       0.80277400
H        2.23143200       0.69161900       0.06300600
H       -0.23256400      -2.01214200       0.17853000
H        1.19448100      -1.83439200      -0.94722600
H       -1.54211400      -0.40956200      -1.24361100
H       -0.10889700      -0.26254800      -2.37663000
