16
Properties=species:S:1:pos:R:3 pbc="F F F"
C       -2.58373500      -0.61156000      -0.32057900
C       -1.12363000      -0.19678300      -0.45335800
C       -0.40420600      -0.21171000       0.89017000
N        0.86000100      -0.11854200       1.15897100
N        1.85125200       0.03188900       0.18000400
C        1.63241200       0.92539600      -0.95985600
H       -3.08094900      -0.60042100      -1.28842400
H       -3.12400900       0.06282800       0.34100600
H       -2.67042300      -1.61630600       0.08771900
H       -1.07732900       0.80045000      -0.90824700
H       -0.61663700      -0.87505200      -1.14909300
H       -1.05217600      -0.37208000       1.76468700
H        2.73198600       0.27911800       0.64784000
H        1.11334900       1.85247400      -0.67621300
H        1.06369400       0.44803600      -1.76386600
H        2.60867200       1.19546300      -1.36649500
