17
Properties=species:S:1:pos:R:3 pbc="F F F"
C       -0.45369200       1.64368400      -1.27034600
C       -0.86556800       1.42168200      -0.01885400
C       -0.10277400       0.73471200       1.05644900
C        1.29024900       0.21633500       0.87414400
C        0.17591300      -0.77349000       1.01844100
C       -0.30078700      -1.63417100      -0.09601300
C        0.15240000      -1.63344600      -1.35286200
H       -1.09489300       2.14470600      -1.98483300
H        0.52730500       1.33961100      -1.61408500
H       -1.86009300       1.76316500       0.27325900
H       -0.34350000       1.10026700       2.05766300
H        1.98037300       0.32256700       1.70632800
H        1.74913900       0.32573600      -0.10300900
H        0.09076700      -1.24885600       1.99861200
H       -1.10592100      -2.32151500       0.16964700
H        0.95721300      -0.98318500      -1.67279100
H       -0.27484000      -2.29433700      -2.09654700
