15
Properties=species:S:1:pos:R:3 pbc="F F F"
C       -0.07470900      -0.30385900       1.65565000
C       -0.44785700      -0.22283400       0.18509400
N       -1.90242000      -0.22853200      -0.02979200
C        0.38527900      -0.98422400      -0.82771600
C        0.42327600       0.52471100      -0.79856200
O        1.60626500       1.17853200      -0.38535400
H        1.00513300      -0.31756300       1.79114300
H       -0.48231200      -1.20576300       2.10999200
H       -0.47124700       0.54999900       2.20489400
H       -2.12179900      -0.22436000      -1.02240600
H       -2.33018000       0.58780900       0.40309100
H       -0.12775200      -1.47262500      -1.65059800
H        1.25626000      -1.51827500      -0.46056000
H       -0.05587000       1.06446500      -1.62042200
H        2.07865300       0.62502300       0.24944300
