18
Properties=species:S:1:pos:R:3 pbc="F F F"
N       -1.55979300       0.61148800       0.12153100
C       -1.33204500      -0.71200700      -0.48346000
C       -0.23404900      -1.50340600       0.24896100
C        1.02029100      -0.67217700       0.47407600
C        0.94661200       0.82417500       0.36325200
C       -0.38622200       1.49547300      -0.00891400
C        1.69397600       0.02684000      -0.66906300
H       -1.77688200       0.48710800       1.11433800
H       -1.06365400      -0.57354700      -1.53997100
H       -2.27525700      -1.27861000      -0.46286600
H        0.00523800      -2.41880200      -0.30724800
H       -0.61894100      -1.83123800       1.22294700
H        1.68913700      -1.06789500       1.24252000
H        1.56842800       1.38937000       1.06046600
H       -0.34075500       1.87534300      -1.04358900
H       -0.55094200       2.36861600       0.63697600
H        2.77919300       0.07626600      -0.66659200
H        1.25160700      -0.06042200      -1.65680600
