12
Properties=species:S:1:pos:R:3 pbc="F F F"
C       -1.56553800       0.53608600       0.65903500
C       -0.04119500       0.54233000       0.57361700
C        0.50392200      -0.64913100      -0.16627400
C        1.36483600      -0.57808800      -1.18149300
H       -1.92336100       1.39285800       1.22650500
H       -1.92512000      -0.36667800       1.14906200
H       -2.01306400       0.57839000      -0.33138500
H        0.36915400       0.54421800       1.59272700
H        0.30292800       1.46615200       0.09878100
H        0.15970400      -1.62505200       0.17773200
H        1.72429300       0.37463200      -1.55271000
H        1.73331400      -1.47170800      -1.67002200
