18
Properties=species:S:1:pos:R:3 pbc="F F F"
N       -0.96096700       1.42630400       1.47309000
C       -1.43258700       0.91908800       0.18393100
C       -0.82410300      -0.45676300      -0.10673200
N        0.65639200      -0.43417000      -0.12324000
C        1.22895700      -1.77952000       0.00143700
C        1.21531300       0.28885300      -1.27062800
H       -1.21181800       2.40361200       1.59560100
H        0.05113900       1.33329900       1.52858900
H       -1.20435600       1.62102800      -0.64590700
H       -2.53015000       0.82794900       0.20669600
H       -1.23480100      -0.84663800      -1.06291300
H       -1.13720200      -1.15909500       0.67734900
H        0.85803200      -2.26015500       0.91073500
H        2.31881300      -1.71333000       0.06534800
H        0.98296600      -2.43787900      -0.85249000
H        0.86230200       1.32300000      -1.27873000
H        0.94528200      -0.16804000      -2.24086800
H        2.30633400       0.30136200      -1.20040900
