18
Properties=species:S:1:pos:R:3 pbc="F F F"
C       -0.31887200      -1.68575400       2.23004300
C       -0.67751200      -0.57395500       1.25277600
C        0.48440500      -0.20507500       0.32246700
C        0.09593800       0.88678700      -0.69947200
O       -0.99205200       0.44069500      -1.51738200
C        1.28556900       1.29223800      -1.58368100
H       -1.16145000      -1.91946100       2.87729800
H        0.51872100      -1.39673100       2.86200300
H       -0.03825100      -2.59587700       1.70345200
H       -0.99041800       0.31552100       1.80980400
H       -1.53751600      -0.87544100       0.64779500
H        0.82546400      -1.09959700      -0.21181800
H        1.33804300       0.14141400       0.91505100
H       -0.27414600       1.77761300      -0.15836900
H       -0.71911000      -0.34324200      -2.01253800
H        1.67216700       0.43827800      -2.13845000
H        2.09898300       1.69627900      -0.98428800
H        0.98675900       2.05024300      -2.30368500
