13
Properties=species:S:1:pos:R:3 pbc="F F F"
C        1.09079800       0.79267400       0.24949700
C        1.70532900      -0.60452900       0.38685500
N        0.36228200      -1.21943700       0.36632700
C       -0.28220000       0.11629400       0.46681700
C       -1.34094600       0.38844500      -0.51846100
C       -2.21322700       0.66158400      -1.30911500
H        1.21590900       1.23995200      -0.73786600
H        1.38086200       1.52614700       1.00600100
H        2.25003000      -0.76428200       1.33182400
H        2.35653400      -0.93426400      -0.43763800
H        0.16670200      -1.83915600       1.15582500
H       -0.68766700       0.31247600       1.48214100
H       -2.97687300       0.86837400      -2.01814000
