12
Properties=species:S:1:pos:R:3 pbc="F F F"
C       -1.15513300      -2.16355600      -1.03756300
C       -1.49867800      -0.90470900      -0.72154100
C       -0.61550900       0.10019200      -0.14101100
C        0.69144800      -0.06527400       0.17209300
C        1.48914600       1.03526700       0.76105700
O        1.04787200       2.14008000       1.00174200
H       -1.87747700      -2.84713200      -1.46646300
H       -0.15123300      -2.54042700      -0.87640000
H       -2.52314700      -0.58255600      -0.90568000
H       -1.05562400       1.07780900       0.05822700
H        1.18613600      -1.02003700      -0.00418400
H        2.57072700       0.78017900       0.98235600
