17
Properties=species:S:1:pos:R:3 pbc="F F F"
C        0.06710800       0.45243200      -2.04328500
C       -0.65070300      -0.00153600      -0.78169300
C       -0.05097200      -1.10649600       0.13760100
C        1.29944700      -0.48012700       0.51585200
C        0.97121000       0.78972700       0.78643400
C       -0.54560400       0.80690200       0.54544400
C       -0.94206500      -0.50990300       1.25008600
H        0.02808500      -0.32281100      -2.80738900
H        1.11246900       0.68230900      -1.85080400
H       -0.40401700       1.34492700      -2.45284400
H       -1.70242800      -0.22340900      -1.01664700
H       -0.08298600      -2.17240100      -0.12683000
H        2.27061100      -0.96112700       0.54781800
H        1.60529500       1.61244600       1.09728800
H       -1.09528200       1.74434800       0.70745600
H       -2.00206100      -0.76306900       1.15321700
H       -0.62020600      -0.64720700       2.28609200
