16
Properties=species:S:1:pos:R:3 pbc="F F F"
N       -1.97598300      -0.51956000       1.13294500
C       -0.53056500      -0.46051400       0.92445500
C       -0.14277900       0.06956100      -0.43911700
C       -1.02669800       0.58602100      -1.30256400
C        1.32794200      -0.04124600      -0.79467500
N        2.18972000       0.45356900       0.28528000
H       -2.18798800      -0.85422200       2.06892200
H       -2.41293600      -1.14343200       0.45912300
H       -0.04749700      -1.45275400       1.06558300
H       -0.08973000       0.18929000       1.69652400
H       -2.07842800       0.65504900      -1.05612600
H       -0.70882800       0.96538100      -2.26691000
H        1.51957300       0.48240000      -1.75341800
H        1.57773200      -1.10137900      -0.97018200
H        1.99555600       1.43389100       0.47429500
H        3.16898600       0.36478800       0.02602200
