16
Properties=species:S:1:pos:R:3 pbc="F F F"
O       -1.61645100      -1.12007700      -0.18955500
C       -0.20270500      -1.19027700      -0.03625400
C        0.34314900       0.25933000       0.02339100
O       -0.18689400       0.95164800      -1.11890400
C       -0.14255000       0.96492200       1.31192800
C        1.87655700       0.27990700      -0.07446500
H       -1.98399800      -2.01112200      -0.25897600
H        0.23737100      -1.73954100      -0.89201200
H        0.05375900      -1.75703200       0.88197500
H       -1.11720300       0.68516800      -1.19741700
H       -1.22705500       0.92563100       1.37896300
H        0.16171500       2.00866200       1.31203700
H        0.27083800       0.48883400       2.19965000
H        2.21120200      -0.19951300      -0.99190600
H        2.33049600      -0.23998100       0.76757500
H        2.24293700       1.30303700      -0.07982200
