14
Properties=species:S:1:pos:R:3 pbc="F F F"
C       -1.14245800      -1.18705100      -0.71169500
O       -1.65970600      -0.36844400       0.32894800
C       -0.84961400       0.44209200       1.03801600
C        0.48636600       0.65804200       0.96832200
C        1.53602200       0.05450200       0.05000800
O        1.42519400       0.52695100      -1.29727200
H       -1.99992500      -1.60860700      -1.24700300
H       -0.54981600      -2.01525500      -0.29714200
H       -0.52688900      -0.60448900      -1.40648100
H       -1.42961800       1.00087100       1.78347800
H        0.86054100       1.39781800       1.67366700
H        1.48712800      -1.04488400       0.01162400
H        2.53897700       0.31408400       0.44507500
H        1.31380600       1.48689700      -1.28453500
