16
Properties=species:S:1:pos:R:3 pbc="F F F"
C       -1.22904100       0.43090900       1.96259100
C       -1.63891700      -0.61660700       0.93542800
C       -1.09526700      -0.32506300      -0.47266900
C        0.40831400      -0.39966900      -0.55571500
N        1.09289700       0.55011500      -1.10632100
N        2.47515600       0.36307600      -1.21223600
H       -1.62447700       0.18634000       2.94652700
H       -1.60174500       1.41472500       1.68507100
H       -0.14603700       0.49711300       2.04131200
H       -2.73177600      -0.67427600       0.89071300
H       -1.29041800      -1.60329000       1.26057800
H       -1.43222400       0.66001500      -0.80801200
H       -1.53167400      -1.05729900      -1.16783600
H        0.89936800      -1.30296100      -0.14150700
H        2.96955900       1.25411700      -1.16647200
H        2.84251600      -0.30423800      -0.52828400
