15
Properties=species:S:1:pos:R:3 pbc="F F F"
C       -2.97243000       0.67677700       0.10516700
C       -2.00112400      -0.21921300       0.27923500
C       -1.15634900      -0.78061100      -0.83160200
C        0.32761600      -0.60850200      -0.64827900
C        0.90297900       0.18269700       0.27583500
C        2.31926100       0.33369800       0.41613900
C        3.51039900       0.49443700       0.57853700
H       -3.56544900       1.03157400       0.93914600
H       -3.20033400       1.08158400      -0.87420900
H       -1.79924800      -0.60454300       1.27898800
H       -1.45514500      -0.33640900      -1.79116300
H       -1.36852300      -1.85639300      -0.93174800
H        0.95860900      -1.16341900      -1.34195600
H        0.28914200       0.75476100       0.97316800
H        4.55884300       0.61715200       0.69758500
