14
Properties=species:S:1:pos:R:3 pbc="F F F"
C       -1.05799600       0.69291000       1.85200700
O       -1.26986300       0.44754600       0.47749200
C       -0.81443200      -0.81622500       0.01191200
C        0.72465300      -0.90503200      -0.10599000
C        1.27921200      -0.01320400      -1.12260100
C        1.74999800       0.70510000      -1.97214200
H       -1.54099200       1.64208300       2.10247800
H        0.01638300       0.76902000       2.10048000
H       -1.49443700      -0.10825700       2.47664600
H       -1.27788600      -0.97990000      -0.97257100
H       -1.17057400      -1.62128100       0.69003400
H        1.00221000      -1.93954800      -0.34996400
H        1.18752400      -0.68088100       0.86376800
H        2.14807700       1.35710500      -2.70992900
