16
Properties=species:S:1:pos:R:3 pbc="F F F"
C       -1.04913100      -1.40033600      -1.23542300
C       -1.41468100      -0.75008400       0.09281500
C       -0.78475600       0.64106600       0.28731100
C        0.73262500       0.57853400       0.41905800
N        1.35354400       0.25819600       1.51454700
N        1.45866000       0.92541900      -0.70926800
H       -1.52976700      -2.37134100      -1.33093700
H        0.02526600      -1.54969800      -1.31867100
H       -1.36918000      -0.78531700      -2.07473900
H       -1.10375200      -1.40090400       0.91563200
H       -2.50363300      -0.65739100       0.16271600
H       -1.20094700       1.08790700       1.19540300
H       -1.06540100       1.29126200      -0.54736700
H        0.70877200       0.05447100       2.28062900
H        0.99941200       0.91319200      -1.60892000
H        2.44945000       0.71743900      -0.69326600
