12
Properties=species:S:1:pos:R:3 pbc="F F F"
C       -1.17604800       0.87466400       1.33133400
N        0.26864500       0.73545700       1.15142000
C        0.67059600       0.44157800      -0.23386800
C        0.24876100      -0.95065200      -0.72654100
O        0.21016700      -1.26805000      -1.88808900
H       -1.39148500       1.07955500       2.38156600
H       -1.74292700      -0.02554200       1.03575600
H       -1.54762300       1.71094000       0.73402900
H        0.63209600       0.01595600       1.78183700
H        1.76763900       0.50860600      -0.30423100
H        0.26665100       1.21158800      -0.90236200
H       -0.00605200      -1.69843900       0.09262900
