21
Properties=species:S:1:pos:R:3 pbc="F F F"
C       -0.87095800      -1.43490300      -1.62518100
C        0.47552500      -1.18376300      -0.95959400
C        0.35084400      -0.50753400       0.42709300
C       -0.29650500       0.87877600       0.33892900
C        0.22794900       1.86648600      -0.39949200
C       -1.54901200       1.08195200       1.14572500
C        1.72258300      -0.42867200       1.11588000
H       -0.74008800      -1.92331800      -2.58869400
H       -1.40436000      -0.50172600      -1.79136600
H       -1.50044400      -2.07421400      -1.00859000
H        1.09731100      -0.56318900      -1.61275700
H        1.00645900      -2.13478900      -0.84037900
H       -0.29960800      -1.14205100       1.04975700
H       -0.23856700       2.84284400      -0.44264800
H        1.13259800       1.71983900      -0.97657600
H       -1.94191700       2.08922100       1.03055700
H       -1.35828600       0.90716600       2.20584900
H       -2.32303700       0.37452400       0.84423500
H        2.41390500       0.18438600       0.54129700
H        2.15973900      -1.42038400       1.22050200
H        1.63374600       0.00763100       2.10864900
