12
Properties=species:S:1:pos:R:3 pbc="F F F"
O       -0.23061500       1.09896700      -1.29754500
C       -1.18810600       0.05849800      -1.16557500
C        0.25171400      -0.21491200      -0.97322000
C        0.86001200      -0.39304900       0.40328000
O        0.01750600      -0.98243400       1.40675700
C        0.39099800       0.37742100       1.57427500
H       -1.68205900      -0.24026300      -2.09920600
H       -1.84908700       0.13791800      -0.29455700
H        0.80437600      -0.69218200      -1.79873300
H        1.89111100      -0.78204000       0.41683400
H        1.07459600       0.57255500       2.41067000
H       -0.42177100       1.10399600       1.45872900
