13
Properties=species:S:1:pos:R:3 pbc="F F F"
O       -2.59418400       0.66028700      -0.86479100
N       -1.21316000       0.73173300      -0.90980300
C       -0.63355100      -0.29878400      -0.38248800
C        0.87138700      -0.39432200      -0.36673900
C        1.41777600      -0.73461100       0.99627400
C        2.39670400      -0.06367300       1.60251900
H       -2.93363100       1.47967700      -1.27256200
H       -1.21479100      -1.12671400       0.05390100
H        1.31375100       0.53508900      -0.73620800
H        1.17886100      -1.18818500      -1.06827800
H        0.96900300      -1.59670900       1.49141800
H        2.86030300       0.80100800       1.14174500
H        2.75819500      -0.36025000       2.57954300
