15
Properties=species:S:1:pos:R:3 pbc="F F F"
C       -1.97189300       0.10497800      -1.29452600
C       -0.50214400       0.25530100      -1.09828400
C        0.16006400       0.00363600       0.06136800
C       -0.54632700      -0.44592700       1.23883600
C       -1.09182800      -0.82333400       2.25324100
C        1.61959200       0.16118600       0.21896300
C        2.48062200       0.56980400      -0.72331300
H       -2.18499700      -0.60773200      -2.09432600
H       -2.42210900       1.05346100      -1.59605100
H       -2.46597100      -0.23699500      -0.38892200
H        0.06907400       0.59287600      -1.96223400
H       -1.59217600      -1.15365600       3.13045500
H        2.00851500      -0.08543800       1.20564900
H        2.16085200       0.83165400      -1.72530800
H        3.53830200       0.65196300      -0.50696900
