16
Properties=species:S:1:pos:R:3 pbc="F F F"
N       -1.77445300      -1.34092600       1.11018400
C       -0.42681600      -0.78225000       1.16829100
C       -0.08537400       0.09733700      -0.01847000
C       -0.99091900       0.46812200      -0.93194500
C        1.36337200       0.54210700      -0.06967100
N        1.71417100       1.24357900      -1.30110400
H       -1.95968900      -1.91347800       1.92925000
H       -1.89222800      -1.91346500       0.27833300
H        0.35032000      -1.57644900       1.25569000
H       -0.33298300      -0.18774900       2.09281200
H       -2.02360300       0.15306700      -0.85341000
H       -0.71892600       1.11757100      -1.75418000
H        2.01346600      -0.34645300       0.10331500
H        1.56237200       1.21183700       0.78379300
H        1.57596600       0.64354600      -2.11015200
H        2.68570200       1.54110200      -1.27824000
