15
Properties=species:S:1:pos:R:3 pbc="F F F"
C       -0.74421800       0.13113500      -2.06248300
C       -1.09347600       0.72576300      -0.70311900
C       -0.54922500      -0.08091800       0.48368400
C        0.98098800      -0.05533500       0.59231200
O        1.42647700      -0.75722100       1.74266200
H       -1.19245000       0.71596600      -2.86298900
H       -1.11046200      -0.88991500      -2.14690400
H        0.33136600       0.11369300      -2.22554900
H       -2.18287300       0.79322700      -0.61380900
H       -0.71750000       1.75352600      -0.64750600
H       -0.89127000      -1.11799400       0.41328700
H       -0.97715800       0.32025700       1.41083100
H        1.34197200       0.99549300       0.62435900
H        1.44752200      -0.53203500      -0.28163700
H        0.97462200      -0.41832200       2.52626000
