16
Properties=species:S:1:pos:R:3 pbc="F F F"
C       -0.17064100      -0.52115800      -2.10357200
C       -0.72087000      -0.06771900      -0.97769600
C       -0.01731800       0.69381700       0.12559600
C       -0.17389700       0.03142600       1.48483400
C       -0.67169100      -1.18373300       1.71185100
C        1.46522000       0.97987300      -0.15761600
H       -0.76731800      -1.04196200      -2.84262400
H        0.88262100      -0.39510500      -2.32225900
H       -1.78719400      -0.22891400      -0.81289100
H       -0.52611200       1.67564100       0.20270000
H        0.17548300       0.62870500       2.32870500
H       -1.01565700      -1.81882100       0.90427300
H       -0.74257600      -1.57868600       2.71837900
H        2.03349600       0.05720700      -0.24840000
H        1.89951000       1.56288000       0.65223300
H        1.58292900       1.54401600      -1.08049200
