15
Properties=species:S:1:pos:R:3 pbc="F F F"
C       -0.78393600       1.84980400      -0.46057600
C       -1.08157300       0.35651100      -0.51286900
C       -0.54440900      -0.41857700       0.69952400
C        0.98393400      -0.55857700       0.70981200
O        1.45526200      -1.26610900      -0.42626800
H       -1.19138700       2.35292700      -1.33491900
H        0.28716100       2.03758200      -0.43685900
H       -1.22337400       2.30683800       0.42437400
H       -0.65331100      -0.06950900      -1.42530500
H       -2.16520100       0.20900900      -0.57774800
H       -0.99077800      -1.42069700       0.70752000
H       -0.86767600       0.06896100       1.62546500
H        1.30147700      -1.07939300       1.63983900
H        1.47203500       0.42685000       0.70913500
H        0.94487100      -2.07866100      -0.53670000
