11
Properties=species:S:1:pos:R:3 pbc="F F F"
C       -0.26079400      -0.07659900       1.50057200
C       -0.53953600      -0.00724100       0.01408800
C        0.36431900       0.74812000      -0.89847900
N        0.34589600      -0.71550600      -0.91529700
H       -0.75121200       0.74021400       2.02984300
H        0.80654600      -0.01498700       1.70399200
H       -0.62982200      -1.01008100       1.92487900
H       -1.60049000      -0.06421000      -0.25642800
H        1.24927100       1.23119500      -0.47960900
H       -0.03969900       1.22985700      -1.79012700
H        1.16020500      -1.08912700      -0.42256300
