21
Properties=species:S:1:pos:R:3 pbc="F F F"
C       -0.86422400      -0.42100400       1.87684800
C       -0.22384300       0.71919500       1.08439500
C        0.17462300       0.32363600      -0.32884500
C       -0.70709700       0.21989700      -1.34043900
C       -2.18499300       0.45349600      -1.25664900
C        1.65115700       0.07092900      -0.57594600
C        2.20721800      -1.12591900       0.19410600
H       -1.14080100      -0.08622900       2.87515400
H       -0.17990400      -1.26006400       1.98160600
H       -1.76227500      -0.78322000       1.38173500
H        0.66016500       1.07704700       1.62242700
H       -0.92561900       1.56077800       1.04955800
H       -0.33405000      -0.07109800      -2.32272200
H       -2.46648800       0.98806700      -0.35243600
H       -2.73298800      -0.49180600      -1.26811200
H       -2.53215500       1.02897200      -2.11518700
H        2.22029100       0.96626700      -0.29123700
H        1.82270700      -0.07897800      -1.64707600
H        2.09215700      -0.99199100       1.26754300
H        3.26729900      -1.25572300      -0.01573000
H        1.69461300      -2.04339700      -0.08634900
