18
Properties=species:S:1:pos:R:3 pbc="F F F"
N       -1.08632600       0.54442000      -2.25505600
C       -1.35023700      -0.10091200      -0.96517100
C       -0.76835500       0.70314000       0.20387000
C        0.76517700       0.69698700       0.28317300
C        1.36125000      -0.65124500       0.70453300
N        0.92267600      -1.03561300       2.04851900
H       -1.45534400      -0.01732700      -3.01755300
H       -0.08733200       0.66679800      -2.39812000
H       -0.96094300      -1.14032600      -0.93735200
H       -2.44014400      -0.18089800      -0.83646300
H       -1.16960500       0.30544300       1.14115400
H       -1.11535200       1.73880000       0.12799400
H        1.08252200       1.46174400       1.00192900
H        1.19334700       0.99018600      -0.68196600
H        2.46926400      -0.58836300       0.63638000
H        1.05682200      -1.43825400      -0.00062300
H        1.18547900      -0.32657000       2.72822200
H        1.33983000      -1.92069900       2.32372700
