18
Properties=species:S:1:pos:R:3 pbc="F F F"
C       -2.77017200       0.38670500       0.36257700
C       -1.27802600       0.50900600       0.37159500
C       -0.44605000      -0.50117200       0.09154800
C        1.07091900      -0.45027400       0.09655900
C        1.62754800      -0.95487800      -1.24696400
C        1.64913000       0.92424900       0.44632900
H       -3.18681600       0.62957000       1.34173400
H       -3.08776200      -0.61944300       0.09832100
H       -3.21408200       1.08363500      -0.35047300
H       -0.88153000       1.49137400       0.62471000
H       -0.87136800      -1.47307700      -0.16410700
H        1.41217500      -1.16203000       0.87147700
H        1.34526300      -0.29116100      -2.06119600
H        1.24634600      -1.94807700      -1.47596100
H        2.71425400      -1.00678600      -1.21905500
H        1.35832900       1.67410200      -0.28649400
H        2.73640300       0.88271500       0.46668500
H        1.30869300       1.25736100       1.42449400
