17
Properties=species:S:1:pos:R:3 pbc="F F F"
C       -1.41739300       2.16311400       0.61418700
N       -1.61982600       1.03719300      -0.29246600
C       -1.09650400      -0.25381700       0.20140600
C        0.41386500      -0.35386200       0.16090800
C        1.07865200      -1.39388100      -0.35803800
C        2.57013100      -1.50740300      -0.40229400
H       -1.85005200       3.06560600       0.17499900
H       -0.35527900       2.37411000       0.83308400
H       -1.91899800       1.97290200       1.56719600
H       -1.21197500       1.24705200      -1.20629400
H       -1.53737000      -1.06687600      -0.39620800
H       -1.45425300      -0.39139400       1.23448800
H        0.97349200       0.48220500       0.58047700
H        0.51913800      -2.22986200      -0.78053600
H        3.04988000      -0.64242300       0.04977600
H        2.92334600      -1.59528600      -1.43125300
H        2.90834600      -2.40129800       0.12451700
