16
Properties=species:S:1:pos:R:3 pbc="F F F"
C       -0.96394200      -1.87277800      -0.80855100
C       -1.48124400      -0.68242700      -0.44303200
O       -0.81951800       0.43004800      -0.06766700
C        0.62943800       0.41237600      -0.01539700
C        1.10427900       1.86258600      -0.10114700
C        1.09911200      -0.27981500       1.26866400
H       -1.63118600      -2.66943900      -1.10232000
H        0.09687800      -2.07351300      -0.83551600
H       -2.56541800      -0.52142100      -0.43202700
H        1.00212200      -0.14649800      -0.89882700
H        0.73114600       2.44467800       0.73864300
H        0.75084400       2.33061600      -1.01706800
H        2.19088900       1.91228100      -0.09123200
H        0.75097500       0.25908800       2.14703400
H        2.18583900      -0.31948300       1.30531300
H        0.71819600      -1.29635000       1.32411600
