14
Properties=species:S:1:pos:R:3 pbc="F F F"
C        0.03497400       0.48280500       2.26743700
C       -0.32634300       0.52973200       0.79927400
C        0.55218300       1.25062800      -0.17540900
C        0.49068500      -0.25527900      -0.20093700
C       -0.16615800      -0.93376600      -1.29994600
C       -0.70452600      -1.52070100      -2.21075300
H       -0.32395500       1.37133200       2.78625900
H        1.11290600       0.42832000       2.40436600
H       -0.41018300      -0.38466800       2.75366200
H       -1.39663400       0.57865600       0.59750800
H        1.46709300       1.70192800       0.19614300
H        0.07897900       1.78931000      -0.98923900
H        1.36562700      -0.78006400       0.18919900
H       -1.17871800      -2.02532800      -3.01588600
