14
Properties=species:S:1:pos:R:3 pbc="F F F"
N       -0.63737100       1.40529600      -0.45525500
C       -0.89972900       0.06724500      -0.17308100
N       -1.77566600      -0.63451700      -0.82459200
C       -0.11028600      -0.54503500       0.96322300
C        1.38872300      -0.45821800       0.83909400
C        2.06656600      -0.17799200      -0.27418600
H       -1.27891400       1.90679000      -1.05559700
H       -0.09410400       1.94969200       0.20033300
H       -2.25027200      -0.09473000      -1.55370500
H       -0.40021400      -1.59634600       1.06576500
H       -0.41080000      -0.06218200       1.90434800
H        1.94028400      -0.68267600       1.75287400
H        1.56407600       0.03245500      -1.21020600
H        3.14955900      -0.16446500      -0.27517900
