19
Properties=species:S:1:pos:R:3 pbc="F F F"
C       -0.63223700      -0.04027100       2.01106900
C       -1.00523200       0.27971100       0.55492900
C       -0.55042600       1.63054900       0.17842800
C       -0.19892200       2.74572600      -0.12608500
C       -0.49623400      -0.79106100      -0.44274500
C        1.03019900      -0.87763400      -0.55056000
C        1.47939000      -1.90752400      -1.57980000
H       -1.07236100       0.68818400       2.68811100
H        0.44483100      -0.02476100       2.15805100
H       -0.99775300      -1.02702600       2.28853700
H       -2.10875900       0.28304200       0.48756100
H        0.11889200       3.72238800      -0.39689500
H       -0.91439100      -0.57403600      -1.43118500
H       -0.89980400      -1.76476100      -0.14356800
H        1.45608500      -1.13121200       0.42573200
H        1.42994900       0.10535100      -0.81680800
H        1.11685900      -2.90148400      -1.32449500
H        2.56492000      -1.95129100      -1.63599800
H        1.10230900      -1.66137000      -2.57047000
