16
Properties=species:S:1:pos:R:3 pbc="F F F"
O       -0.81532100       2.22952500      -1.00898300
C       -1.27158600       0.89978600      -1.17539300
C       -0.76721100       0.02934200      -0.02527100
C        0.76253500      -0.08014300      -0.00068900
C        1.29717700      -0.88247800       1.19359100
O        0.94484500      -2.25572100       1.11982700
H       -1.12629100       2.77753100      -1.74056100
H       -0.92145700       0.49689200      -2.15036200
H       -2.38303100       0.88027900      -1.20851100
H       -1.21625600      -0.96841200      -0.11269000
H       -1.11981700       0.44786100       0.92325300
H        1.18516900       0.92835300       0.02706200
H        1.10983600      -0.53771100      -0.93307300
H        0.92243800      -0.44584700       2.14433100
H        2.39589900      -0.83052000       1.22352000
H       -0.00816800      -2.33789800       0.98684200
