18
Properties=species:S:1:pos:R:3 pbc="F F F"
C       -0.05499200      -0.99935000      -2.03023100
C       -0.59628700       0.29911100      -1.44191900
C       -0.09615800       0.62099700      -0.01073800
C       -0.50191800      -0.45507800       1.02334500
C       -0.13560700      -0.05777300       2.44747200
O        1.32104300       0.81072100      -0.00503000
H       -0.41826000      -1.13892200      -3.04611500
H       -0.36424700      -1.86397800      -1.44603600
H        1.03321200      -0.99186400      -2.06757600
H       -1.69105800       0.26338100      -1.43400300
H       -0.31851000       1.12893300      -2.09850500
H       -0.53440100       1.59098600       0.29321500
H       -0.01538400      -1.40480300       0.77512500
H       -1.58034700      -0.63319500       0.95304900
H        0.93133500       0.13499800       2.52857400
H       -0.39472200      -0.84627200       3.15134400
H       -0.66054900       0.84713000       2.74711400
H        1.75434800      -0.01960700      -0.24353000
