19
Properties=species:S:1:pos:R:3 pbc="F F F"
C        0.26523600       2.09332800       1.14734000
C        1.22912600       1.01982000       0.62748900
C        0.04352800       0.04154700       0.46419600
C       -0.92865800       1.19233600       0.80916600
C       -0.12608900      -0.62263100      -0.89559600
C        0.49643900      -1.95896800      -1.16744100
C       -0.98996900      -1.83922400      -1.04070600
H        0.29734800       3.04997700       0.61933800
H        0.37131500       2.29611900       2.21587700
H        2.00984900       0.70518800       1.32519500
H        1.70840200       1.28744500      -0.31731700
H        0.04814600      -0.72957000       1.24741900
H       -1.62286800       0.99570700       1.63057000
H       -1.50885500       1.54418600      -0.04734900
H       -0.14254000       0.07292800      -1.73695200
H        1.03169800      -2.44695400      -0.35914100
H        0.90926800      -2.14318300      -2.15430200
H       -1.45322000      -2.24761300      -0.14816000
H       -1.58622300      -1.94148300      -1.94186700
