17
Properties=species:S:1:pos:R:3 pbc="F F F"
C        0.41144600      -1.52488300      -0.62285700
C        0.04036100      -0.23077900       0.12569900
C       -1.46645400      -0.06786000       0.18277900
C       -2.19666600      -0.21367900       1.28763400
N        0.62280200       0.95820400      -0.54704900
C        2.06745200       1.09363300      -0.37994500
H        1.49042700      -1.66184900      -0.65027700
H        0.04881600      -1.49887200      -1.64800400
H       -0.02575600      -2.39019200      -0.12981300
H        0.42844600      -0.31501100       1.16843500
H       -1.95992500       0.17206900      -0.75946400
H       -1.73846900      -0.45201700       2.24128000
H       -3.27425800      -0.10218200       1.27115300
H        0.16201500       1.79937700      -0.19194000
H        2.59392300       0.28455100      -0.89343700
H        2.38525900       1.07825600       0.67861600
H        2.39308400       2.03985000      -0.81706400
