19
Properties=species:S:1:pos:R:3 pbc="F F F"
C       -1.21385000      -1.61936900       0.91797200
C        0.21872800      -1.37905400       0.54926400
C        0.79631700      -0.30506800      -0.02889800
C        0.15269400       0.97978500      -0.47163400
C       -1.24002500       1.08753000      -1.03048300
C       -0.92532100       1.69920300       0.29412100
C        2.28382700      -0.34024100      -0.29638000
H       -1.27895700      -1.99300800       1.94119600
H       -1.65112000      -2.39000600       0.27794600
H       -1.83730500      -0.73527900       0.84703300
H        0.87652700      -2.21695300       0.78365500
H        0.87012000       1.64978000      -0.94918100
H       -1.85841500       0.19734800      -1.05426000
H       -1.38688100       1.75555200      -1.87417500
H       -1.32542200       1.23273500       1.18742000
H       -0.85810000       2.78181200       0.34869500
H        2.72994700      -1.27658800       0.03041400
H        2.79331000       0.47631900       0.21838000
H        2.49207300      -0.21842000      -1.36088800
