16
Properties=species:S:1:pos:R:3 pbc="F F F"
C       -2.33892400      -1.57151900      -0.13777200
C       -1.40298400      -0.77358900       0.37687100
C       -0.61892300       0.24016200      -0.41284900
C        0.88928900       0.07131700      -0.24758100
C        1.80477500       1.23544400      -0.47422100
C        1.60085400       0.70202300       0.90974500
H       -2.87943800      -2.27704800       0.48140400
H       -2.59162300      -1.54070700      -1.19151500
H       -1.17231200      -0.83532200       1.44089700
H       -0.90056500       1.24778900      -0.07937100
H       -0.88943800       0.17399300      -1.47297700
H        1.26789900      -0.90139400      -0.56474500
H        1.36116100       2.19676200      -0.71340200
H        2.76036200       1.05063500      -0.95453300
H        1.02024300       1.30561600       1.60006200
H        2.41918500       0.15665100       1.36901900
