15
Properties=species:S:1:pos:R:3 pbc="F F F"
C       -0.33152800      -0.23403100       2.17266700
O       -1.07250000      -0.24501500       0.97189200
C       -0.45773600      -0.01904000      -0.23171000
C       -1.22156400      -0.02238900      -1.34487100
C        1.03936800       0.20756200      -0.22367500
N        1.58737700       0.36202500      -1.56776200
H       -1.03735800      -0.38498300       2.99554900
H        0.18793900       0.72595700       2.32853300
H        0.41675200      -1.04412100       2.20319600
H       -2.28738700      -0.18566400      -1.27531300
H       -0.78534300       0.17185200      -2.31200100
H        1.52895700      -0.62572800       0.32963600
H        1.27032500       1.11750900       0.35387600
H        1.41358100      -0.46804400      -2.12873500
H        2.58965400       0.52654900      -1.53000500
