11
Properties=species:S:1:pos:R:3 pbc="F F F"
C       -2.95650800       0.07407700       0.01588000
C       -1.50316400       0.05053300       0.00966100
C       -0.29196300      -0.02772100      -0.00799300
C        1.17861000       0.08886100       0.02110900
O        1.75073400       1.14819000       0.26844700
N        1.87983700      -1.07714500      -0.24873400
H       -3.35552200      -0.50672600      -0.81753100
H       -3.32646700       1.09661100      -0.06994700
H       -3.34166100      -0.35064600       0.94441500
H        1.40588100      -1.94528800      -0.45204200
H        2.89119100      -1.05394900      -0.24327900
