21
Properties=species:S:1:pos:R:3 pbc="F F F"
C       -2.28278300       0.65596400       0.25564000
C       -0.75364100       0.46735700       0.26605000
C       -0.40568800      -0.80161500       1.01719100
C        0.13565100      -0.83148900       2.23547500
C       -0.21280300       0.46868200      -1.18632000
C        1.31070200       0.62482100      -1.31121300
C        2.10115600      -0.64159400      -1.00656300
H       -2.67452800       0.70232300       1.26919300
H       -2.77564600      -0.16792300      -0.25687600
H       -2.55447600       1.57798300      -0.25545000
H       -0.31201400       1.32206300       0.80210800
H       -0.66124600      -1.73917400       0.52132600
H        0.39675600       0.07986800       2.76113500
H        0.34005600      -1.76897600       2.73839600
H       -0.68727500       1.29979600      -1.72047000
H       -0.53422000      -0.44552300      -1.69660400
H        1.64992200       1.43447900      -0.65581600
H        1.54132200       0.94498300      -2.33371600
H        1.94655800      -0.96756700       0.01868400
H        3.16634200      -0.46974200      -1.14861500
H        1.80288400      -1.45534100      -1.66485800
