14
Properties=species:S:1:pos:R:3 pbc="F F F"
C       -1.03695200      -2.00456400      -0.00013800
N       -1.24511300      -0.58388700      -0.26763900
C       -0.75531700       0.31554300       0.78109300
C        0.78080600       0.43866300       0.78277800
C        1.30232400       1.06452800      -0.43130900
N        1.72521100       1.57055000      -1.37434900
H       -1.50047500      -2.59121900      -0.79469300
H       -1.46695800      -2.33062800       0.96424800
H        0.03054100      -2.24080500       0.01737000
H       -2.23808500      -0.40790200      -0.43269800
H       -1.07665300      -0.01258300       1.79290500
H       -1.19783100       1.30556800       0.61380100
H        1.24182500      -0.54968200       0.89328400
H        1.10178500       1.03558400       1.64515400
