13
Properties=species:S:1:pos:R:3 pbc="F F F"
C       -2.00725100       1.25588300      -0.40684100
C       -1.08451700       0.59636400       0.29337000
C       -0.23177100      -0.51758200      -0.26002300
C        1.24345900      -0.24093900      -0.11439900
C        2.10153000      -1.04605300       0.51192100
H       -2.60049000       2.04093900       0.04598500
H       -2.19669000       1.02937100      -1.44989700
H       -0.91862400       0.85368200       1.33948500
H       -0.47060200      -0.66504600      -1.32094000
H       -0.47835800      -1.45440300       0.25552000
H        1.60505600       0.68214600      -0.56733400
H        1.77582100      -1.96964900       0.97674500
H        3.15519100      -0.80307500       0.57626700
