17
Properties=species:S:1:pos:R:3 pbc="F F F"
C       -0.58255700       0.40381100      -2.27066300
C       -0.75897500       0.69603800      -0.78619500
C       -0.25897100      -0.45517400       0.11828600
C       -0.76591200      -0.29485800       1.49617700
C       -1.18540000      -0.16744300       2.62206100
C        1.25155700      -0.64190000       0.15609100
C        2.16943500       0.19782300      -0.31980400
H       -0.94299300       1.23700700      -2.87031400
H       -1.14134900      -0.48394400      -2.56180100
H        0.46204600       0.23575100      -2.52254600
H       -1.81979000       0.86387700      -0.57750200
H       -0.24332900       1.62382300      -0.52163000
H       -0.69064600      -1.39911200      -0.26787900
H       -1.55164700      -0.05081500       3.61228700
H        1.58089900      -1.55897500       0.64619800
H        1.90673900       1.13308800      -0.79929900
H        3.22501600      -0.03048500      -0.23323700
