21
Properties=species:S:1:pos:R:3 pbc="F F F"
C       -2.59841500      -1.67964100      -1.15296800
C       -1.07630000      -1.61989800      -1.17341400
C       -0.50981400      -0.61705400      -0.16160100
C        1.02184500      -0.57664200      -0.17322300
C        1.60579700       0.40639600       0.85365100
C        1.25942000       1.84144100       0.56519100
C        0.76518300       2.69483700       1.46266300
H       -2.96776700      -2.40793300      -1.87199400
H       -3.03171900      -0.71300800      -1.40182500
H       -2.96590300      -1.96386600      -0.16887800
H       -0.73541500      -1.35556300      -2.18043000
H       -0.66977500      -2.61570100      -0.96528800
H       -0.85970900      -0.87545800       0.84367500
H       -0.90285100       0.38210300      -0.37461100
H        1.37408600      -0.30675500      -1.17521900
H        1.41510900      -1.57892200       0.03108200
H        2.69995500       0.30231500       0.84794200
H        1.27440300       0.13774700       1.86166600
H        1.45090100       2.18544700      -0.45209800
H        0.55992200       2.38858300       2.48190900
H        0.55247600       3.72438200       1.20227000
