21
Properties=species:S:1:pos:R:3 pbc="F F F"
C       -2.19152600       1.95071400      -0.21173300
C       -2.36218900       0.85224100       0.82938100
C       -1.54005200      -0.40956700       0.51695400
C       -0.05248400      -0.17405700       0.54848200
C        0.78391300      -0.51558100      -0.43896800
C        2.27302700      -0.28642600      -0.40548300
C        3.07287800      -1.55074800      -0.71259600
H       -2.78906800       2.82372600       0.04379100
H       -2.50251700       1.60700300      -1.19639100
H       -1.15146100       2.26128100      -0.28158300
H       -3.42055400       0.57821300       0.89981900
H       -2.07623500       1.23528200       1.81484400
H       -1.83282200      -0.81148100      -0.45850800
H       -1.79589800      -1.17880900       1.25963000
H        0.34531500       0.29433700       1.44979900
H        0.38741600      -0.98562800      -1.33953400
H        2.56685400       0.11192000       0.57113900
H        2.53586600       0.48329000      -1.14483300
H        2.87813500      -2.32693800       0.02414000
H        4.14095200      -1.34286900      -0.70712000
H        2.81262400      -1.94878400      -1.69141800
