11
Properties=species:S:1:pos:R:3 pbc="F F F"
C       -0.70900800       1.74846200      -0.03828400
C       -1.33743900       0.66352700      -0.52040100
O       -0.77007600      -0.52774900      -0.85277200
C        0.63704600      -0.67433000      -0.69349200
C        1.03546800      -0.71989700       0.72346200
N        1.37924500      -0.78170000       1.81921300
H       -1.28096000       2.63740100       0.18449100
H        0.35202200       1.77199300       0.16544700
H       -2.41468800       0.65186100      -0.70688300
H        1.17413700       0.14755800      -1.20379200
H        0.91897400      -1.62149700      -1.17929000
