12
Properties=species:S:1:pos:R:3 pbc="F F F"
C       -2.94635800      -0.06116600       0.00684600
C       -1.49197400      -0.03768200       0.00358400
C       -0.28055700       0.03410900       0.00600700
C        1.17988900      -0.04832000      -0.03040300
N        1.82227100      -1.12587400      -0.37395900
N        1.86384500       1.11350100       0.29265500
H       -3.31867600      -0.79520900       0.72342100
H       -3.32790700      -0.32837000      -0.98000000
H       -3.35082600       0.91587800       0.27687700
H        1.19096500      -1.89146000      -0.61728200
H        1.37760900       1.83931300       0.79996300
H        2.86002200       1.02481200       0.44994500
