12
Properties=species:S:1:pos:R:3 pbc="F F F"
C       -1.35091900       0.59310800       1.16828300
C        0.15393100       0.44654500       1.14327400
O        0.85801800       1.17113000       0.13690700
C        0.87302300      -0.25859300       0.04375900
C        0.16657300      -0.86500700      -1.07430800
C       -0.38935300      -1.43786700      -1.98324700
H       -1.63825900       1.52658300       1.65076700
H       -1.81236000      -0.22389000       1.72300900
H       -1.75419000       0.59353400       0.15911400
H        0.64944200       0.47104000       2.12963100
H        1.85544200      -0.71099200       0.26153300
H       -0.88374900      -1.89443400      -2.80587200
