14
Properties=species:S:1:pos:R:3 pbc="F F F"
C       -1.29541000      -1.02684800       0.27582400
C        0.22383600      -0.90970100       0.29433300
C        0.76600100       0.24183400      -0.56461500
C        0.40898800       1.62492000      -0.03373300
H       -1.62344400      -1.87583600       0.87238000
H       -1.66381600      -1.16734900      -0.73861100
H       -1.76641100      -0.13366600       0.68047900
H        0.65798000      -1.84950400      -0.06390900
H        0.56735700      -0.78605400       1.32670700
H        0.39361800       0.13746600      -1.58907500
H        1.85630500       0.15324100      -0.62301600
H       -0.66808700       1.77633700      -0.01563500
H        0.84410000       2.40158800      -0.65962400
H        0.78189800       1.76254400       0.97944600
