19
Properties=species:S:1:pos:R:3 pbc="F F F"
C       -0.90104500       2.22532400       1.37914300
C       -1.27885900       1.48638400       0.10072500
C       -0.75609900       0.04395500       0.03797900
C        0.76879200      -0.05104600      -0.09565700
C        1.28709600      -1.49354200      -0.13941500
N        0.92646400      -2.16812100      -1.38910600
H       -1.32976600       3.22533900       1.38579100
H        0.17771200       2.32581700       1.47739600
H       -1.26757600       1.69768200       2.25749600
H       -0.91079500       2.04579500      -0.76580700
H       -2.37066600       1.46796100       0.01185700
H       -1.22598600      -0.46020300      -0.81396900
H       -1.07970700      -0.50016000       0.93255900
H        1.23923900       0.46305600       0.74930000
H        1.08940900       0.47761600      -0.99875700
H        0.91485100      -2.04560600       0.75037900
H        2.38422600      -1.48511200      -0.05567000
H       -0.08179100      -2.17216700      -1.51878800
H        1.25629900      -3.12962500      -1.38470200
