14
Properties=species:S:1:pos:R:3 pbc="F F F"
C       -1.10649700      -1.63161600       0.70022800
C       -1.50380100      -0.53299400       0.03468500
O       -0.78070700       0.59767400      -0.16008600
C        0.59692800       0.62213000      -0.11905300
C        1.20626400       1.70348700       0.40207800
C        1.33499000      -0.50574400      -0.79379600
H       -1.78879300      -2.46069400       0.81971700
H       -0.12532600      -1.71231900       1.14556200
H       -2.51937400      -0.43820800      -0.36475000
H        0.63155400       2.49670200       0.85897400
H        2.28283300       1.78950700       0.38113100
H        0.70816700      -0.99746300      -1.53344500
H        1.66300400      -1.26312400      -0.08115200
H        2.22628400      -0.12737300      -1.29020800
