17
Properties=species:S:1:pos:R:3 pbc="F F F"
C        1.59742200       1.49317200      -0.48405200
C        1.03367500       0.05938300      -0.44072400
C       -0.44270000       0.06799300      -0.45562300
C       -1.65093600       0.09085400      -0.50909100
C       -3.10761300       0.11240700      -0.55645500
C        1.62311200      -0.71402500       0.72602900
C        0.93098200      -1.35586400       1.66579600
H        2.68521900       1.47357700      -0.51966400
H        1.29779600       2.05613600       0.39636700
H        1.23652400       2.02292900      -1.36263500
H        1.36946600      -0.45116800      -1.36609300
H       -3.53233300      -0.34035200       0.34125400
H       -3.47674800      -0.44128300      -1.42165200
H       -3.47842400       1.13654800      -0.62656700
H        2.71357400      -0.72732200       0.75864000
H       -0.15259200      -1.35829000       1.66447000
H        1.43386400      -1.89429000       2.46059700
