17
Properties=species:S:1:pos:R:3 pbc="F F F"
C       -1.10324900       1.40010400      -0.93572200
C       -2.34848900       0.63014800      -0.66403900
N       -1.07963800      -0.06249300      -0.89118000
C       -0.44446400      -0.66641700       0.29622400
C        1.06646300      -0.74691500       0.11699700
C        1.97356000      -0.95744400       1.28032600
N        1.87353500       0.35757700       0.64630600
H       -0.63604100       1.93775900      -0.10839300
H       -0.94575600       1.84322900      -1.92116300
H       -3.09743900       0.51120500      -1.44938300
H       -2.74842900       0.63555000       0.35333300
H       -0.85660900      -1.68208500       0.42674200
H       -0.68006300      -0.10555000       1.22035900
H        1.39681000      -1.16070400      -0.84425500
H        2.90204400      -1.51396100       1.13559100
H        1.55999500      -1.02008500       2.28836400
H        2.68528100       0.53220500       0.05021500
