17
Properties=species:S:1:pos:R:3 pbc="F F F"
C        0.00444900      -2.24513200      -1.00041200
C       -0.06874600      -0.73885300      -1.21978700
C        0.48999000       0.06102600      -0.03705800
C        0.32021800       1.59275200      -0.07432900
N       -0.26990300       1.56946400       1.28022600
C       -0.33589900       0.09297100       1.26487200
H       -0.40040400      -2.78280800      -1.85523600
H       -0.56294800      -2.54033500      -0.11995100
H        1.03332400      -2.56931500      -0.85705100
H       -1.10877900      -0.44628000      -1.40242300
H        0.48758300      -0.47663700      -2.12741200
H        1.53341100      -0.23335200       0.14552500
H       -0.37535200       1.94939300      -0.85249900
H        1.24394300       2.19015800      -0.14851700
H       -1.17960700       2.03027000       1.34927900
H       -1.35988100      -0.30127600       1.15719700
H        0.11795800      -0.38264300       2.14978300
