19
Properties=species:S:1:pos:R:3 pbc="F F F"
C       -1.83969400       1.33329300       0.45638300
C       -1.96951100      -0.05447500      -0.15668200
C       -0.77242900      -0.46384700      -1.03704800
C        0.52337100      -0.61256500      -0.26043500
C        0.90119400      -1.81425800       0.21569300
C        1.33191900       0.60945400      -0.08172200
C        2.37358200       0.75197500       0.74889100
H       -2.72214500       1.57546500       1.04532400
H       -1.73246000       2.09439600      -0.31426400
H       -0.97266200       1.39501400       1.11011900
H       -2.87860800      -0.09626200      -0.76704900
H       -2.09822600      -0.79452200       0.63956000
H       -0.64076200       0.27936600      -1.83145700
H       -1.01581100      -1.41268100      -1.52574100
H        0.28858000      -2.69371000       0.05952800
H        1.82561100      -1.94231200       0.76527400
H        1.03140600       1.46400900      -0.68918100
H        2.71179500      -0.05563200       1.38768900
H        2.91269500       1.68940500       0.80971700
