11
Properties=species:S:1:pos:R:3 pbc="F F F"
O        0.37144600      -1.28515600       0.26389500
C       -1.00198100      -0.93743800      -0.09564800
C       -1.29412400       0.52285100       0.03694600
C       -0.27699800       1.39290800      -0.05289700
C        1.07804900       0.85995700      -0.16406000
N        1.38153500      -0.39412000       0.03377300
H       -1.64533600      -1.54624400       0.56291100
H       -1.19341300      -1.29703300      -1.13488000
H       -2.32511700       0.84382400       0.17749400
H       -0.42682500       2.46721700       0.02053900
H        1.91870000       1.54265300      -0.31967900
