16
Properties=species:S:1:pos:R:3 pbc="F F F"
C       -0.82235700      -1.69907200       1.75003400
C       -1.61615600      -0.51452200       1.21922200
C       -0.95460900       0.27253900       0.11857800
C        0.23895900       0.02033400      -0.43259300
C        0.83656200       0.84189300      -1.54888100
O        2.19664000       1.16235900      -1.28457100
H       -1.37264400      -2.19764400       2.54524100
H        0.13670000      -1.38249800       2.15465900
H       -0.63158400      -2.42947200       0.96671800
H       -1.84686400       0.17046400       2.04644300
H       -2.59350700      -0.86229700       0.85789800
H       -1.53230100       1.12339300      -0.24898100
H        0.83504700      -0.82097100      -0.08192200
H        0.24532900       1.76853500      -1.71069500
H        0.81889600       0.27876100      -2.49812600
H        2.27342100       1.52582000      -0.39282200
