7
Properties=species:S:1:pos:R:3 pbc="F F F"
C       -1.13385400       0.25471800      -0.21960200
C        0.38693400       0.21068100      -0.18166900
O        1.01592800      -0.56627200       0.48823800
H       -1.50079700       1.02927500      -0.88735700
H       -1.52848000       0.44016600       0.77797200
H       -1.52851100      -0.70465500      -0.54994900
H        0.91189200       0.97299700      -0.83894700
