21
Properties=species:S:1:pos:R:3 pbc="F F F"
C       -3.13519200       0.82954500      -1.06021400
C       -1.64999900       0.65943200      -1.13035400
C       -0.82969100       0.75703800      -0.07660600
C        0.66682600       0.61635800      -0.15275800
C        1.23711800      -0.40231700       0.86547100
C        0.73713300      -1.82286500       0.57828300
C        2.76983900      -0.35151300       0.88274900
H       -3.46360800       1.64839100      -1.70291800
H       -3.46593300       1.03972700      -0.04564600
H       -3.64818000      -0.06893400      -1.40776100
H       -1.23442800       0.44504400      -2.11517500
H       -1.24824500       0.96943700       0.90798100
H        1.12801800       1.59405300       0.04745500
H        0.96623700       0.33538700      -1.16766100
H        0.87729400      -0.11199500       1.86611900
H        1.07803000      -2.16671900      -0.39635300
H       -0.34979800      -1.85851700       0.58531300
H        1.10558000      -2.52169200       1.32688100
H        3.18263700      -0.62270700      -0.08707600
H        3.17168100      -1.04314600       1.62037800
H        3.12451400       0.64759300       1.12903500
