15
Properties=species:S:1:pos:R:3 pbc="F F F"
C        0.74366500       0.92363000       1.58928000
C        0.15895700      -0.20842800       0.73226600
C        0.04388100       0.18657700      -0.74580500
C       -0.98493600      -0.44251800      -1.62164900
N       -1.13333500       0.94530900      -1.18607200
O        0.96611000      -1.38901900       0.86470200
H        0.83125300       0.61381200       2.62808400
H        0.11167700       1.80817200       1.54827900
H        1.73554200       1.20626400       1.23871600
H       -0.84381200      -0.47764000       1.11375900
H        0.97975600       0.51341400      -1.21658500
H       -1.66184600      -1.17990000      -1.18619500
H       -0.78023300      -0.57929600      -2.68435300
H       -1.82272500       1.01404800      -0.43287200
H        1.88544900      -1.17944000       0.65150400
