13
Properties=species:S:1:pos:R:3 pbc="F F F"
C       -1.38805000      -0.46537000       0.99941000
N        0.06703900      -0.61194300       1.09612700
C        0.72412500      -1.36225700       0.03072900
C        0.89284200       0.12605000       0.12080700
C        0.27789600       0.99902600      -0.86438500
C       -0.17704600       1.76935600      -1.67929100
H       -1.87123500      -1.30636700       1.50569000
H       -1.75055200      -0.43378200      -0.03801400
H       -1.69821100       0.45411900       1.50221900
H        0.09600300      -1.76248300      -0.76805700
H        1.54547100      -2.01086400       0.34345800
H        1.83396200       0.51313700       0.53284800
H       -0.60330800       2.42900800      -2.39464800
