15
Properties=species:S:1:pos:R:3 pbc="F F F"
N       -1.14038900       1.68698400      -1.53052200
C       -0.73074700       0.30057700      -1.29368500
C       -0.29821000       0.09853000       0.15379600
C        1.13133400       0.40867100       0.56032800
C        0.63955500      -1.00841600       0.52948100
O        0.45013700      -1.70106300       1.74156200
H       -1.39054600       1.82734800      -2.50571400
H       -0.38810400       2.32723300      -1.28983300
H        0.09601600      -0.01097700      -1.96792800
H       -1.58117700      -0.36012200      -1.52474000
H       -1.05403500       0.36575900       0.89363600
H        1.28495000       0.88106100       1.52544600
H        1.81494600       0.73858400      -0.21612800
H        1.01522800      -1.67581700      -0.25156500
H        0.13275300      -1.08962300       2.41846100
