21
Properties=species:S:1:pos:R:3 pbc="F F F"
C       -1.20937100      -1.61876400       1.25916400
C       -1.44884900      -0.13623200       1.51412300
C       -0.91749900       0.77860100       0.40056000
C        0.60213000       0.76224300       0.27724000
C        1.28339900       1.48575700      -0.84998200
C        1.34701900      -0.01328700      -0.77765700
C        0.65556700      -0.86280500      -1.82237700
H       -1.59735100      -2.21841200       2.08016200
H       -0.14787500      -1.83299600       1.15945900
H       -1.70230600      -1.94351800       0.34507400
H       -0.98433100       0.14735900       2.46503000
H       -2.52375500       0.03939400       1.63372700
H       -1.24600800       1.80407200       0.61436500
H       -1.37730700       0.50529100      -0.55382600
H        1.11474200       0.82851300       1.23988700
H        2.18270600       2.05327800      -0.62936600
H        0.65494200       1.92293400      -1.61934500
H        2.30601600      -0.42306600      -0.45274100
H       -0.26689400      -0.40219600      -2.16759700
H        0.41333000      -1.85069400      -1.43092300
H        1.29972200      -1.00303200      -2.69033100
