9
Properties=species:S:1:pos:R:3 pbc="F F F"
C       -1.17173400      -0.30626100      -0.27173100
C        0.32780200      -0.26489000      -0.23504900
C        1.03825300       0.57949600       0.51418400
H       -1.52740500      -1.07450600      -0.95333400
H       -1.58564200       0.64825300      -0.59670500
H       -1.58562900      -0.51524600       0.71469600
H        0.85220500      -0.97938500      -0.86904600
H        0.55978000       1.30662100       1.15938500
H        2.12076400       0.56419500       0.50057600
