15
Properties=species:S:1:pos:R:3 pbc="F F F"
C       -1.42743000       0.02068900      -1.54264600
O       -1.92341800      -0.31262800      -0.25908900
C       -1.08557900      -0.39919500       0.81014700
C        0.24111900      -0.17788500       0.93036400
C        1.27636800       0.24988600      -0.09403600
N        2.59050000       0.37333500       0.54235600
H       -2.27296500      -0.01493100      -2.23793800
H       -0.66681000      -0.69818100      -1.87880900
H       -1.00331300       1.03516600      -1.56097100
H       -1.64842500      -0.70313600       1.70027600
H        0.64077300      -0.33805400       1.92881700
H        0.97850300       1.20567000      -0.58239900
H        1.36335700      -0.48820200      -0.90944600
H        2.55224400       1.02804900       1.31891300
H        3.28361900       0.70033300      -0.12520300
