15
Properties=species:S:1:pos:R:3 pbc="F F F"
C        1.45612800      -0.52657700      -1.37272600
C        0.82615900      -0.47145600       0.02097200
C       -0.71015200      -0.53081900      -0.01777300
C       -1.53019500       0.69030100      -0.25469000
N       -1.40199300       0.13433200       1.09453500
O        1.23549600       0.71950900       0.68050300
H        2.53910200      -0.46623600      -1.29953300
H        1.11643800       0.30349600      -1.98877200
H        1.19927600      -1.45482100      -1.88076700
H        1.18679600      -1.35549000       0.60697500
H       -1.13866900      -1.48704900      -0.34425400
H       -2.50022800       0.58863500      -0.74473900
H       -1.03186800       1.64734000      -0.40983300
H       -2.24727600      -0.37557100       1.36058500
H        0.55477100       0.93460500       1.33986300
