18
Properties=species:S:1:pos:R:3 pbc="F F F"
C       -2.61475800       0.59845000      -0.38650500
C       -1.09103000       0.61861300      -0.38452800
C       -0.49240400      -0.59577700       0.33792300
C        1.05515800      -0.64713800       0.34697600
O        1.56875800      -0.74173400      -0.98496500
C        1.69964300       0.54025200       1.07870000
H       -3.01287700       1.46587600      -0.90877300
H       -3.00582700       0.60935200       0.62878300
H       -2.99353700      -0.29464900      -0.87909800
H       -0.74301300       1.54311900       0.08832300
H       -0.72849200       0.64512600      -1.41842100
H       -0.86586100      -1.50902700      -0.13503900
H       -0.85263100      -0.61540400       1.37217700
H        1.35988600      -1.58171800       0.85589800
H        1.35281700       0.06559200      -1.47046100
H        1.47517700       1.48364500       0.58378000
H        2.78101300       0.42870100       1.10248400
H        1.34361800       0.60685800       2.10467200
