17
Properties=species:S:1:pos:R:3 pbc="F F F"
C       -0.83345100      -2.33800300      -1.59980100
C        0.64288600      -2.13422900      -1.44351700
C        1.20272300      -1.15959400      -0.70081200
C        0.47097300      -0.18017800       0.04557200
C       -0.08513500       0.67882100       0.70057700
C       -0.80318800       1.68881900       1.48477100
C       -0.14160100       3.06453400       1.44292100
H       -1.04664500      -3.17221100      -2.26350900
H       -1.31526000      -1.44889500      -2.00834600
H       -1.30902100      -2.54175400      -0.63934800
H        1.29952500      -2.82585100      -1.96835400
H        2.29001000      -1.08515000      -0.64243500
H       -0.87510900       1.34726300       2.52702000
H       -1.83548700       1.76375000       1.11596100
H        0.86984000       3.02389500       1.84030500
H       -0.71041500       3.77758100       2.03646800
H       -0.08667900       3.44034400       0.42398100
