17
Properties=species:S:1:pos:R:3 pbc="F F F"
C       -1.64499800       1.06664300      -0.80806500
N       -0.20424100       0.82281100      -0.85815100
C        0.30436000      -0.08530400       0.17601200
C        0.24733000       0.43962800       1.61111000
C        0.10735000      -1.55469500      -0.06186500
C        1.47300600      -0.94777700      -0.22041100
H       -1.93144500       1.72245000      -1.63412700
H       -1.98193900       1.54294400       0.13005900
H       -2.18845700       0.12473700      -0.91541400
H        0.29920700       1.71296500      -0.81995700
H       -0.77949200       0.62712700       1.92346000
H        0.79463700       1.37754500       1.70613200
H        0.68294600      -0.27521200       2.30498200
H       -0.40879300      -1.86066000      -0.96523100
H       -0.05760000      -2.19992900       0.79509900
H        1.85963200      -0.85396400      -1.22931400
H        2.21870000      -1.18864300       0.53069000
