15
Properties=species:S:1:pos:R:3 pbc="F F F"
C       -1.54478900       2.37565600       1.07960800
C       -2.03928900       1.15699900       0.81703000
C       -1.26384700      -0.04182500       0.49012700
C        0.07176000      -0.09457000       0.33247900
C        0.82068000      -1.36605800       0.02602300
C        1.77010700      -1.21870100      -1.08073500
C        2.55676900      -1.10747600      -1.99045900
H       -2.20234400       3.20374200       1.31190300
H       -0.47992100       2.57659800       1.06838300
H       -3.11954500       1.01673000       0.84772400
H       -1.84078600      -0.95836400       0.36323100
H        0.67035400       0.80887100       0.44103500
H        0.11850000      -2.17845000      -0.20184900
H        1.38220200      -1.68487500       0.91998000
H        3.24318900      -1.00840300      -2.79484500
