10
Properties=species:S:1:pos:R:3 pbc="F F F"
C       -2.42971300      -0.30111900       0.03021100
C       -1.21937500      -0.34223000       0.03431500
C        0.22408900      -0.38639200       0.03878800
C        0.89985400      -1.55069300       0.15562900
C        0.90703700       0.87974500      -0.08822900
C        1.47768800       1.94258300      -0.19498600
H       -3.49203600      -0.26711900       0.02682800
H        0.37371000      -2.49175400       0.24998200
H        1.98197900      -1.56770700       0.15740900
H        1.97886600       2.87521700      -0.28858900
