21
Properties=species:S:1:pos:R:3 pbc="F F F"
C       -2.68511200       0.30650400       1.72310400
C       -1.71010000       0.62741900       0.59371000
C       -1.17261200      -0.61161200      -0.07604700
C        0.08522400      -0.82918700      -0.48175000
C        1.26478000       0.11888200      -0.35475000
C        2.50230000      -0.62160100       0.17561200
C        1.56994700       0.78617100      -1.70843400
H       -3.08526900       1.21933500       2.15986700
H       -2.19675300      -0.25782600       2.51445800
H       -3.52162400      -0.28719100       1.35940400
H       -0.89293700       1.24664300       0.97646100
H       -2.22986200       1.24084100      -0.15620600
H       -1.90895500      -1.39682800      -0.25328500
H        0.30518100      -1.77829100      -0.97230600
H        1.01216300       0.91546600       0.36193400
H        2.78857100      -1.43234400      -0.49174800
H        2.30978500      -1.04857600       1.15738800
H        3.34953800       0.05596700       0.26232800
H        1.82380000       0.04324200      -2.46181200
H        2.40980300       1.47278000      -1.61821900
H        0.71000400       1.34732100      -2.06693700
