12
Properties=species:S:1:pos:R:3 pbc="F F F"
C       -1.18431700       0.74686800       1.02639300
N       -1.57319900      -0.07160200      -0.10275200
C       -0.70076600      -0.69275100      -0.95602500
C        0.66505400      -0.67173900      -0.92366100
C        1.47302100       0.01851200       0.02901700
N        2.18770100       0.55414800       0.76835800
H       -2.08448600       1.11020800       1.52266400
H       -0.58787400       1.61188700       0.71222500
H       -0.59267100       0.17773800       1.75361200
H       -2.56443700      -0.19358700      -0.27297300
H       -1.19480400      -1.26369600      -1.74376400
H        1.20480700      -1.22571800      -1.68535800
