17
Properties=species:S:1:pos:R:3 pbc="F F F"
C       -2.76419500       1.29636100      -0.05663300
N       -1.31558600       1.18911300      -0.19039700
C       -0.78583700      -0.12129800       0.21322300
C        0.72028800      -0.12886500       0.21350700
C        1.46751000      -1.17489500      -0.16025400
C        2.96278800      -1.20090800      -0.11486300
H       -3.08573800       2.30024000      -0.34326300
H       -3.12175100       1.10328100       0.97203500
H       -3.25822000       0.57638500      -0.71561600
H       -0.85778400       1.92812700       0.34804100
H       -1.17727000      -0.89671800      -0.46303900
H       -1.15034600      -0.40054400       1.23107600
H        1.21130200       0.77621900       0.57388700
H        0.97988100      -2.07993000      -0.52426600
H        3.36842600      -0.24938500       0.22131400
H        3.37892400      -1.42310400      -1.09875500
H        3.31835400      -1.98073600       0.56148500
