15
Properties=species:S:1:pos:R:3 pbc="F F F"
C        0.88571700       2.37444100       1.63896900
C        0.50777600       1.28643000       0.74621900
C        0.17346900       0.39245800       0.00351200
C       -0.18813200      -0.71857200      -0.90585500
N       -1.65371600      -0.78748100      -1.07310600
C        0.40705500      -2.05586600      -0.40603700
H        1.64330500       2.04606100       2.35307300
H        0.02130400       2.73075700       2.20212600
H        1.29337100       3.21612600       1.07592900
H        0.25159300      -0.50007900      -1.90052000
H       -2.10779700      -0.89806300      -0.16978600
H       -1.90402200      -1.58018900      -1.65954300
H        0.00517500      -2.32308900       0.56867800
H        1.48904800      -1.99285700      -0.31872200
H        0.16872300      -2.85964700      -1.10034400
