15
Properties=species:S:1:pos:R:3 pbc="F F F"
C       -0.50331600      -0.00651200       1.75572400
C       -1.01794700       0.09304100       0.33652100
C       -0.19936400       0.78653800      -0.73338600
C       -0.35757000      -0.69649800      -0.79719500
N        0.80657300      -1.52440800      -0.55760300
O        1.07436400       1.28169700      -0.39089100
H       -0.79347800       0.86597400       2.34242500
H        0.58179900      -0.07327100       1.76774100
H       -0.90181500      -0.88731500       2.25968200
H       -2.10053800       0.21206100       0.25383500
H       -0.73741900       1.41313900      -1.46773000
H       -1.04631200      -1.08917800      -1.55770700
H        0.64298800      -2.20106300       0.18480300
H        1.59872100      -0.93504400      -0.30765500
H        0.98431200       2.05256200       0.18496600
