17
Properties=species:S:1:pos:R:3 pbc="F F F"
C        0.90992300      -1.55078100       1.75539700
C       -0.09454500      -0.97211000       0.76461700
C        0.58356700      -0.13234600      -0.31300300
C        0.63160200       1.35984400      -0.23227600
N       -0.18694000       0.69624100      -1.25129000
C       -1.64049700       0.77427000      -1.10795500
H        0.40984200      -2.16262500       2.50334600
H        1.44870900      -0.76093900       2.27508400
H        1.64418400      -2.17461100       1.24882500
H       -0.83147000      -0.37060700       1.30508200
H       -0.64878900      -1.79324100       0.29362300
H        1.43889900      -0.63221000      -0.78867700
H        1.50162400       1.90479100      -0.60621500
H        0.10441700       1.84876700       0.59124400
H       -2.01771500       1.62314300      -1.68756100
H       -1.97980500       0.90402900      -0.06839600
H       -2.10161500      -0.13344600      -1.50800300
