16
Properties=species:S:1:pos:R:3 pbc="F F F"
N       -1.37897300      -0.85006000      -1.38457500
C       -1.69844100       0.36654400      -0.62770200
C       -1.09818900       0.35379700       0.76188200
C        0.19507300       0.14903000       1.04482700
C        1.27353500      -0.12158800       0.02904400
N        2.60254900       0.16050200       0.58116700
H       -1.84966900      -0.84152200      -2.28578000
H       -1.67472700      -1.67604300      -0.87111900
H       -2.79485300       0.51811000      -0.54316900
H       -1.31690100       1.23416900      -1.19384600
H       -1.78559800       0.54545900       1.58566100
H        0.51233800       0.16896200       2.08701900
H        1.07420200       0.45898900      -0.89564100
H        1.24323100      -1.18134100      -0.27235200
H        2.67073000       1.13076100       0.87677800
H        3.32435600      -0.01733800      -0.11200700
