18
Properties=species:S:1:pos:R:3 pbc="F F F"
C       -1.81062800      -0.37719600       0.83819700
C       -0.28107000      -0.31733700       0.76511600
C        0.23255300      -0.43290500      -0.72269600
N       -0.08831900       0.75882600      -1.53397600
C        1.74104900      -0.69674900      -0.77828400
N        0.19605300       0.90605800       1.44118500
H       -2.18603700      -1.30008700       0.40019800
H       -2.26353800       0.45652000       0.30286000
H       -2.14776500      -0.32805300       1.87103600
H        0.12448900      -1.18233900       1.32224000
H       -0.28436700      -1.29481700      -1.18397000
H        0.41549300       1.57034900      -1.18475600
H       -1.08504100       0.95693100      -1.49684800
H        2.30242800       0.12525300      -0.33572800
H        2.07357100      -0.80635500      -1.80790600
H        1.99763600      -1.60612400      -0.23842500
H       -0.20214800       1.73078700       0.99875600
H        1.20971400       0.96886300       1.38808000
