17
Properties=species:S:1:pos:R:3 pbc="F F F"
C       -1.67049900      -1.34754600       1.61708700
C       -0.46057900      -1.62108000       1.11859900
C        0.50941100      -0.62575300       0.59021400
C        0.53545000       0.78898800       1.08962700
C        0.02770600       0.52123200      -0.29630900
C        0.83805000       0.91376000      -1.47305200
C        0.32353300       1.28523100      -2.64948700
H       -2.31680200      -2.13879600       1.97432500
H       -2.04549100      -0.33282900       1.68169500
H       -0.13293600      -2.65998700       1.07447400
H        1.47799700      -1.04431500       0.31535200
H        1.50566000       1.26631000       1.19161000
H       -0.19063300       1.06844000       1.84684500
H       -1.05260300       0.58078200      -0.43148100
H        1.92079300       0.88646300      -1.34459100
H       -0.74736600       1.32387600      -2.81012800
H        0.96294000       1.56106400      -3.47816800
