14
Properties=species:S:1:pos:R:3 pbc="F F F"
C        1.04457300      -1.16415900       0.48648800
C        0.48778300       0.27716500       0.49808000
C       -1.05548800       0.30191200       0.46545400
O       -1.56587400      -0.24030200      -0.74354700
N        0.99320700       1.08135900      -0.62774300
H        2.13159900      -1.15445600       0.53186400
H        0.75897400      -1.69501500      -0.42099300
H        0.67794500      -1.73323600       1.33899500
H        0.81370000       0.75232500       1.44472000
H       -1.46276800      -0.25627900       1.33512400
H       -1.41844200       1.33657500       0.53527000
H       -1.23439300      -1.14044000      -0.85902800
H        0.46686500       0.85467200      -1.46969300
H        1.97985600       0.89925400      -0.79381000
