17
Properties=species:S:1:pos:R:3 pbc="F F F"
C       -0.37168100       0.61040900      -2.54736300
C        0.62491700      -0.33021000      -1.95106300
C        0.74280700      -0.67392300      -0.65544500
C       -0.09557800      -0.23424200       0.48101500
C       -1.42903500      -0.03772100       0.37133200
C        0.61996000      -0.08720300       1.76745600
C        0.14434800       0.49691200       2.87429100
H       -1.21225700       0.06928300      -2.98872600
H        0.08751100       1.18961000      -3.34800300
H       -0.77291700       1.29920200      -1.80703400
H        1.34656200      -0.75263700      -2.65085600
H        1.57882900      -1.32125000      -0.38448900
H       -1.95187000      -0.21005200      -0.55962900
H       -2.02399900       0.25444800       1.22823600
H        1.63682900      -0.48166000       1.78340400
H       -0.85019700       0.92615100       2.91390200
H        0.74707600       0.56277400       3.77185900
