17
Properties=species:S:1:pos:R:3 pbc="F F F"
N       -0.69007500      -0.12935500      -1.92699400
C       -0.52406700      -0.38801300      -0.49555100
C        0.54693300      -1.42378000      -0.04731200
C        1.10002500      -0.39281600       0.94597100
C        0.21925600       0.70571100       0.31050700
C       -0.60398400       1.58078300       1.24780800
H       -1.10188900      -0.93403000      -2.39365300
H        0.20636500       0.07278000      -2.36331000
H       -1.51168900      -0.61857200      -0.06375800
H        1.25674100      -1.67850700      -0.83780200
H        0.17313600      -2.35434400       0.38783900
H        2.17914300      -0.22323700       0.90521500
H        0.83102800      -0.61239300       1.98188100
H        0.81335700       1.34410900      -0.35790900
H       -1.19894800       0.97675200       1.93094900
H       -1.28437900       2.21686200       0.68455400
H        0.03867500       2.22475200       1.84641900
