21
Properties=species:S:1:pos:R:3 pbc="F F F"
C       -0.69844900       2.30314300      -1.26437600
C       -0.33316600       2.15514700       0.20637600
C        0.30186700       0.82405500       0.60453300
C        1.26828800       0.08916700      -0.28001700
C       -0.09099000      -0.48987400      -0.00965700
C       -0.23994300      -1.72970000       0.86468500
C       -0.07902400      -3.02831100       0.08091500
H       -1.13996600       3.28101000      -1.44553900
H       -1.42039500       1.55032800      -1.57379300
H        0.17697100       2.21087100      -1.90358500
H       -1.23433700       2.30815800       0.81378100
H        0.35125600       2.96661900       0.48480200
H        0.54011800       0.78136800       1.67021900
H        2.12574200      -0.38015500       0.19269400
H        1.46516800       0.48487600      -1.27118400
H       -0.79372100      -0.44521900      -0.84295200
H        0.49787100      -1.69739700       1.67312400
H       -1.22541700      -1.72142600       1.34673500
H        0.90477400      -3.08708700      -0.37982800
H       -0.82204600      -3.10122600      -0.71092600
H       -0.19752100      -3.89248900       0.73169800
