21
Properties=species:S:1:pos:R:3 pbc="F F F"
C       -1.97969600       1.86989000      -1.53408000
C       -1.90794700       1.40663200      -0.08383300
C       -1.17060600       0.07395600       0.10799300
C        0.33713000       0.15857000      -0.16654300
C        1.04625200      -1.16735800       0.07563000
C        2.51787500      -1.19714500       0.35543400
C        1.54295900      -1.52578100       1.44308400
H       -2.53214100       2.80405900      -1.61174500
H       -2.48174900       1.13107200      -2.15561000
H       -0.98774400       2.03503700      -1.94907400
H       -2.92650300       1.30303200       0.30598200
H       -1.42554600       2.18126000       0.52213100
H       -1.61725800      -0.68756100      -0.54055000
H       -1.32672500      -0.27047200       1.13609300
H        0.78237300       0.93163600       0.46850700
H        0.50348200       0.47677600      -1.20280000
H        0.66074100      -1.99772800      -0.51925300
H        3.04572700      -0.25130000       0.42205200
H        3.10433900      -2.00842300      -0.06394300
H        1.41597500      -0.79954500       2.23948400
H        1.46922500      -2.56042500       1.76262000
