18
Properties=species:S:1:pos:R:3 pbc="F F F"
C        0.67791100       1.93260800      -0.10811100
C        1.64432500       0.74717800      -0.01488200
C        0.54255100      -0.10132500      -0.69076900
N       -0.29769000       1.11499600      -0.86233300
C       -0.04998700      -1.23263300       0.15113700
C       -1.49624200      -1.61054400       0.04390600
C       -0.98020400      -0.97533300       1.29701600
H        1.04077900       2.80934400      -0.66881400
H        0.30023800       2.28912900       0.86372400
H        1.91567100       0.44437500       0.99949800
H        2.56206100       0.85598900      -0.59854300
H        0.85270900      -0.52147700      -1.67078200
H       -1.21253400       1.04937600      -0.41000600
H        0.64195800      -2.06635800       0.29078700
H       -1.75473800      -2.66432300       0.07630100
H       -2.13419500      -1.01274200      -0.59943700
H       -0.88628400      -1.59817800       2.18091000
H       -1.27195400       0.05019000       1.50291300
