21
Properties=species:S:1:pos:R:3 pbc="F F F"
C        0.01971500       1.59040400       1.50768400
C       -0.47198700       0.14974700       1.54858900
C        0.04344200      -0.76665500       0.40267900
C       -0.40923800      -0.26527400      -0.97114300
C       -1.62726200      -0.57928700      -1.43655900
C        0.53371900       0.57719200      -1.78606700
C        1.55618800      -0.99843400       0.49714400
H       -0.34652300       2.13865400       2.37370600
H       -0.33402600       2.10366700       0.61654200
H        1.10644900       1.64245100       1.51783500
H       -1.56663400       0.14636100       1.52621100
H       -0.18148700      -0.30255600       2.50366500
H       -0.44511200      -1.74169100       0.56435300
H       -2.30639800      -1.19726100      -0.86165100
H       -1.97049300      -0.22358000      -2.40022300
H        0.89499000       1.43409000      -1.21784500
H        0.05046400       0.94240800      -2.68895900
H        1.41019900      -0.00029800      -2.08328000
H        2.11667400      -0.07334700       0.38258900
H        1.89131300      -1.69107200      -0.27221200
H        1.81311600      -1.42397900       1.46531200
