14
Properties=species:S:1:pos:R:3 pbc="F F F"
C       -0.07839700      -0.20781800       2.23626200
C       -0.41710100      -0.01437900       0.77280400
C        0.52413300       0.75248300      -0.14277800
C        0.39955100      -0.72603100      -0.29545800
O       -0.28594300      -1.14544700      -1.46218600
O       -0.03227800       1.53273300      -1.16853900
H       -0.42681200       0.63327100       2.83516700
H        0.99734500      -0.29522500       2.38063300
H       -0.54204000      -1.11008500       2.63710300
H       -1.47855600       0.09009200       0.55051900
H        1.43305300       1.18942800       0.28753600
H        1.21620300      -1.39770200       0.01558400
H       -0.78822200      -1.95184500      -1.28159400
H       -0.43431300       0.91824800      -1.80413100
