17
Properties=species:S:1:pos:R:3 pbc="F F F"
C       -3.00462300       0.92278500       0.58059200
C       -1.55235400       0.90827900       0.45608500
C       -0.34746300       0.88524600       0.34982000
C        1.11453400       0.90150300       0.23612400
C        1.72421400      -0.39878600      -0.28550700
C        1.14388500      -1.73115000       0.07636800
C        1.02975600      -1.22218400      -1.32584700
H       -3.45961300       0.19226500      -0.09072900
H       -3.40617200       1.90667600       0.33151900
H       -3.31020500       0.68170900       1.60038900
H        1.54512600       1.13434500       1.22202500
H        1.41062400       1.73192900      -0.42303600
H        2.81292600      -0.35710900      -0.35960700
H        0.24213900      -1.74270200       0.67910000
H        1.82849000      -2.55208000       0.26681200
H        0.05213100      -0.89326300      -1.66122400
H        1.63685500      -1.69593100      -2.09105400
