21
Properties=species:S:1:pos:R:3 pbc="F F F"
C        0.11022900       0.98350200       2.42433800
C       -0.24753000       0.07893700       1.23711500
C        0.31538300       0.67127700      -0.07353800
C       -0.14032100       0.02179000      -1.36600300
C       -1.25081900      -0.71883800      -1.48903000
C        0.73454600       0.30765700      -2.55856700
C        0.25491000      -1.35087500       1.47418400
H       -0.28289900       1.98829000       2.28155800
H        1.18883400       1.06092700       2.54782300
H       -0.30333800       0.58859500       3.34992700
H       -1.34565200       0.04899600       1.16182400
H        1.41120600       0.64864200      -0.03698400
H        0.05258600       1.73765100      -0.12089100
H       -1.89842300      -0.92820000      -0.64773800
H       -1.53576900      -1.13315600      -2.44814400
H        1.74266100      -0.07834500      -2.40153800
H        0.82935400       1.38226500      -2.72048400
H        0.33466300      -0.14041900      -3.46468100
H        1.33668100      -1.36823900       1.59188200
H       -0.00246100      -1.99838700       0.63970300
H       -0.18582800      -1.76932300       2.37675300
