19
Properties=species:S:1:pos:R:3 pbc="F F F"
C       -3.11482100      -0.20049100      -0.79780600
C       -1.95967500       0.52381400      -0.11380600
C       -0.78425000       0.73832400      -1.03233600
C        0.51250000       0.67202400      -0.70199500
C        1.07641600       0.36685100       0.66408200
C        2.34022400      -0.44922100       0.60026100
C        2.57693200      -1.53080300       1.34240000
H       -3.95832400      -0.30976500      -0.11928900
H       -2.81551300      -1.19402400      -1.12336400
H       -3.45612700       0.34781600      -1.67359700
H       -1.65369900      -0.03053600       0.77927400
H       -2.31676300       1.49989700       0.24483800
H       -1.03593500       0.98672600      -2.06374600
H        1.25182200       0.86838500      -1.47927800
H        0.33520400      -0.13119500       1.29602000
H        1.31058900       1.32144000       1.16555900
H        3.10023200      -0.10262500      -0.10124500
H        1.84241000      -1.90744800       2.04488300
H        3.51215000      -2.07166800       1.26514600
