19
Properties=species:S:1:pos:R:3 pbc="F F F"
C       -3.08239400      -0.45278100      -1.15892700
C       -1.58845000      -0.53157200      -1.12717500
C       -0.82748300      -0.02680700      -0.14716400
C        0.67377700      -0.11006800      -0.12052100
C        1.44766400       1.21292000       0.10639100
C        2.22246500       0.56158100       1.25694300
C        1.32455100      -0.67706400       1.16642900
H       -3.42709700       0.06882800      -2.05369500
H       -3.47279000       0.06950900      -0.28845400
H       -3.52487300      -1.45032900      -1.18488600
H       -1.11341500      -1.03876700      -1.96773900
H       -1.30368600       0.48095400       0.69255600
H        1.03218700      -0.63631200      -1.01644300
H        0.80947200       2.03990500       0.42606400
H        2.04926700       1.55474100      -0.73997100
H        2.19147200       1.09800700       2.20882900
H        3.26989600       0.35952900       1.01954000
H        0.62675000      -0.77071700       2.00182800
H        1.84204500      -1.63259800       1.04651000
