18
Properties=species:S:1:pos:R:3 pbc="F F F"
C       -2.76644500       1.09068400       0.71697200
C       -1.25087300       1.15316200       0.75862000
O       -0.70663000       0.05345100       0.03607600
C        0.71689400       0.03995000       0.02637500
C        1.20289700      -1.16911300      -0.76764900
C        2.72180300      -1.25614900      -0.82784700
H       -3.20182400       1.92429800       1.26493800
H       -3.13004500       0.16665500       1.16124800
H       -3.12948000       1.13250700      -0.30766000
H       -0.88599900       1.13280100       1.80982500
H       -0.88546700       2.10989700       0.32305900
H        1.10371800       0.00816600       1.06937100
H        1.10278800       0.98451300      -0.41790600
H        0.79580700      -1.12112600      -1.78240500
H        0.79879600      -2.08152700      -0.31823500
H        3.14798800      -0.37269100      -1.30047400
H        3.04002200      -2.12573500      -1.39871900
H        3.15107600      -1.33657200       0.16952800
