19
Properties=species:S:1:pos:R:3 pbc="F F F"
C       -3.37425200      -0.13045800       1.27441100
C       -1.85522200      -0.04151800       1.33473200
C       -1.18636600      -0.49270900       0.02478300
C        0.31288200      -0.46081600       0.09932500
C        1.10518900       0.16892800      -0.78983500
C        2.56070500       0.17231500      -0.70307200
C        3.36314500       0.79464300      -1.58049100
H       -3.81870500       0.19406800       2.21295600
H       -3.70003500      -1.15125000       1.08406800
H       -3.77272000       0.49795700       0.48039300
H       -1.48364500      -0.65701800       2.16079800
H       -1.55734200       0.98735000       1.55932100
H       -1.53568700       0.13017900      -0.80493500
H       -1.51454500      -1.51802800      -0.19866900
H        0.77070700      -0.99540400       0.93316900
H        0.65617500       0.70870300      -1.62346800
H        3.00109100      -0.36996800       0.13436500
H        2.95805200       1.34228700      -2.42358600
H        4.44016500       0.76881400      -1.47352900
