12
Properties=species:S:1:pos:R:3 pbc="F F F"
O       -1.81581400      -0.00035400       0.12574200
S       -0.44469500      -0.00006400      -0.37547900
O       -0.17979900       0.00007500      -1.81108000
C        0.65768100       1.17100500       0.55576400
C        1.42707000       0.00020300       1.20486000
C        0.65813200      -1.17081900       0.55562700
H        0.12437800       1.80545200       1.26483000
H        1.26694400       1.80617200      -0.08857100
H        1.35126000       0.00012100       2.29342700
H        2.48742600       0.00041900       0.94735400
H        0.12506800      -1.80555700       1.26461200
H        1.26763800      -1.80567600      -0.08878500
