16
Properties=species:S:1:pos:R:3 pbc="F F F"
C       -2.41986500      -0.14930500       0.87227300
O       -1.01475200      -0.02040500       0.81241200
C       -0.49582500      -0.12544500      -0.50920700
C        1.01221300      -0.01454900      -0.49634100
C        1.76309800      -0.68011700      -1.38557100
C        1.61426400       0.90321100       0.52840000
H       -2.72871200      -0.04794300       1.91701200
H       -2.75166200      -1.13356600       0.49316600
H       -2.92358800       0.63076500       0.27173000
H       -0.92802400       0.68693900      -1.14058400
H       -0.82143300      -1.07959000      -0.97560400
H        1.31497300      -1.34558200      -2.11427900
H        2.84090800      -0.57681300      -1.40103900
H        1.22683900       1.91639200       0.41352400
H        2.69828200       0.93515800       0.44704900
H        1.34712600       0.57470600       1.53240500
