17
Properties=species:S:1:pos:R:3 pbc="F F F"
C       -0.65761800       0.77856500       2.32137300
C       -1.18024700       0.92580100       0.90786600
C       -0.34830400       1.57955400      -0.15820200
C       -0.64517000       0.11043500      -0.23867800
C        0.46346100      -0.92013800      -0.03693600
C        1.09337200      -1.31935400      -1.29752400
C        1.61279200      -1.65722000      -2.33467000
H       -0.90499700       1.65728900       2.91588400
H        0.42338700       0.66070600       2.33949500
H       -1.09887600      -0.08656500       2.81638200
H       -2.25035700       1.13739000       0.85969500
H        0.66321300       1.87360400       0.10276700
H       -0.84176800       2.24197900      -0.86281500
H       -1.38155700      -0.18211100      -0.98875800
H        1.23470300      -0.52296400       0.63477200
H        0.05686400      -1.81797900       0.45163700
H        2.06967600      -1.94721200      -3.24842800
