16
Properties=species:S:1:pos:R:3 pbc="F F F"
C       -1.54901100      -0.75623100      -0.24957800
C       -0.07551000      -0.68079600      -0.54108300
C        0.50819500      -1.54536500      -1.38815400
C        0.73780500       0.38029000       0.13075100
C        0.18110800       1.75050100       0.41413400
C        0.46090700       0.82003800       1.54436900
H       -2.01471800      -1.56837900      -0.80141000
H       -2.05173400       0.17238300      -0.52209500
H       -1.73199000      -0.91800100       0.81327300
H       -0.06362100      -2.31926100      -1.88373400
H        1.56886100      -1.49224800      -1.60016300
H        1.79258200       0.35977100      -0.14684700
H       -0.85587900       1.94553500       0.16075600
H        0.84461200       2.59821500       0.27524900
H       -0.38493300       0.38081300       2.06312800
H        1.31585500       1.03055200       2.17921200
