19
Properties=species:S:1:pos:R:3 pbc="F F F"
C       -2.51289100       1.62993400      -0.11860000
C       -0.98997300       1.58134300      -0.12612600
C       -0.44283500       0.15226500      -0.21830100
C        1.08891200       0.10933500      -0.20446600
C        1.65069400      -1.31402200      -0.28095700
N        1.23433000      -2.12001700       0.86941500
H       -2.86878900       2.65637100      -0.05548200
H       -2.91767000       1.08193400       0.73007200
H       -2.92342400       1.18804600      -1.02441300
H       -0.60643200       2.06107500       0.78114800
H       -0.61069900       2.17292300      -0.96692200
H       -0.81364000      -0.32323300      -1.13297000
H       -0.82811000      -0.44409700       0.61405200
H        1.45866000       0.59607100       0.70569200
H        1.48207700       0.69278700      -1.04470900
H        2.75798500      -1.25906000      -0.36447300
H        1.29895700      -1.80649300      -1.19952500
H        1.52411000      -1.67992200       1.73892300
H        1.64323100      -3.04941000       0.82340600
