17
Properties=species:S:1:pos:R:3 pbc="F F F"
C        0.57475500      -1.56661300       1.02411500
C       -0.12404700      -1.76514400      -0.27722500
C       -0.96156400      -0.89351600      -0.87425900
C       -1.43303600       0.39911500      -0.37334700
C       -0.75888300       1.42294000       0.20416900
C        0.67724100       1.62208900       0.38271900
C        1.66688300       1.05373900      -0.32485800
H        0.65019700      -2.50640800       1.57034500
H        0.06460900      -0.83486300       1.64680700
H        1.59450700      -1.19961900       0.86425900
H        0.06262800      -2.71447900      -0.77971700
H       -1.45362900      -1.22436900      -1.79157100
H       -2.50841200       0.54803000      -0.50527700
H       -1.36570300       2.25970100       0.55527900
H        0.94331500       2.36908700       1.13282700
H        1.46346900       0.34863500      -1.12094800
H        2.70092700       1.31862400      -0.13988800
