9
Properties=species:S:1:pos:R:3 pbc="F F F"
N       -2.13850600       0.32038300       0.61973800
C       -0.76418800       0.29302600       0.56642700
C       -0.05239100      -0.23953100      -0.46303200
C        1.37615700      -0.24436500      -0.47252300
N        2.53311400      -0.25894800      -0.50079300
H       -2.61324200       0.72943100       1.40964900
H       -2.68717000      -0.06931900      -0.13390300
H       -0.26427200       0.73758300       1.42569700
H       -0.55503100      -0.68251800      -1.31928900
