13
Properties=species:S:1:pos:R:3 pbc="F F F"
C       -1.13445900       1.42121100      -0.34454900
O       -1.35335100       0.14528400      -0.92364200
C       -0.84012900      -0.94998200      -0.18280700
C        0.70516300      -1.05647800      -0.25966700
C        1.40058600      -0.15870800       0.65958400
N        1.95473500       0.52720100       1.40009200
H       -1.71051600       2.15119500      -0.92069100
H       -0.06944300       1.70370700      -0.37761900
H       -1.46840800       1.44327700       0.70603500
H       -1.27757200      -1.86037000      -0.62171800
H       -1.16720200      -0.89293300       0.87436600
H        1.03972600      -0.85020900      -1.28204600
H        1.01011600      -2.08360100      -0.02519500
