14
Properties=species:S:1:pos:R:3 pbc="F F F"
C       -2.18800400      -0.03310400       0.14142500
C       -0.69694300      -0.08575300       0.05919100
N        0.00036100      -1.18562900      -0.00592700
C        1.42120800      -0.80544000      -0.07171400
C        1.44739500       0.73806100      -0.15836500
N        0.05457000       1.09558800       0.10225900
H       -2.60953600      -1.03279200       0.10483100
H       -2.60743500       0.54776800      -0.68148300
H       -2.51135600       0.44351100       1.06754600
H        1.91005800      -1.28528500      -0.93429300
H        1.95102900      -1.17107100       0.82327300
H        1.77426400       1.10130400      -1.15031400
H        2.12827600       1.19714000       0.57909200
H       -0.32175100       1.94712600      -0.30619100
