12
Properties=species:S:1:pos:R:3 pbc="F F F"
O       -1.87555300       0.33930700       0.44616100
C       -0.66942600       0.34593800       0.37454500
C        0.36359300       1.47110600       0.21424200
C        1.39082000       0.40438600      -0.21997500
C        0.40378500      -0.74235500       0.18366800
O        0.14181300      -1.74944300      -0.77397500
H        0.61566900       1.97320600       1.15179200
H        0.11984200       2.23797400      -0.52474900
H        2.34274900       0.42006800       0.31421700
H        1.59741600       0.42548400      -1.29080500
H        0.70339800      -1.23842600       1.12376000
H       -0.44178300      -1.41167100      -1.46658800
