16
Properties=species:S:1:pos:R:3 pbc="F F F"
C       -1.27676400       0.45319500      -1.96684300
C       -0.48369800      -0.30842200      -1.21434500
C        0.32639400       0.20314600      -0.03583200
C       -0.08606800      -0.51615800       1.23669500
C       -0.58166400       0.09044100       2.31450600
C        1.83339700       0.00687100      -0.29674500
H       -1.83097300       0.03710500      -2.79976500
H       -1.39621300       1.51303800      -1.77238400
H       -0.38759200      -1.37157400      -1.43789800
H        0.13040600       1.27848200       0.08707800
H        0.04665900      -1.59869100       1.24099400
H       -0.72732400       1.16435300       2.34417900
H       -0.85702400      -0.47127100       3.19921200
H        2.07240800      -1.04712700      -0.42547200
H        2.42041900       0.38651900       0.53673400
H        2.13965000       0.53472300      -1.19729900
