15
Properties=species:S:1:pos:R:3 pbc="F F F"
C       -1.30843800      -0.61565200       2.32607200
C       -1.65060800      -0.90668300       1.07101200
C       -0.73876700      -0.85762700      -0.12771600
C        0.71817400      -0.67873100       0.18797800
C        1.52142200       0.23535300      -0.38692800
C        1.09951000       1.19257600      -1.36485800
C        0.81074000       2.02522300      -2.19837400
H       -2.03465400      -0.66716200       3.12794000
H       -0.30100400      -0.31425900       2.58676900
H       -2.68023700      -1.19473400       0.85449800
H       -1.07460900      -0.06128800      -0.80400600
H       -0.86942900      -1.79462000      -0.69294000
H        1.14788800      -1.36135600       0.92024100
H        2.57640800       0.27964800      -0.11247200
H        0.52344300       2.74701500      -2.92315000
