17
Properties=species:S:1:pos:R:3 pbc="F F F"
C        1.30841600       0.64031100       1.04958400
C        0.89179300       0.59630500      -0.43422800
C       -0.64781900       0.53162700      -0.59815100
C       -1.28272400      -0.67363400       0.03670400
C       -2.24336600      -0.62121900       0.96030300
N        1.53407800      -0.51694000      -1.16029600
H        2.38919100       0.72910600       1.14437400
H        0.99823100      -0.26440000       1.56799800
H        0.85514800       1.48928100       1.55682300
H        1.23154500       1.53334300      -0.91388200
H       -1.09040400       1.44310800      -0.18425700
H       -0.87437900       0.52552900      -1.67166100
H       -0.93029100      -1.64559300      -0.31006700
H       -2.62383800       0.32461100       1.32814300
H       -2.67718600      -1.52382200       1.37286300
H        1.27939700      -1.40735700      -0.73898800
H        2.54623600      -0.42556000      -1.11455000
