19
Properties=species:S:1:pos:R:3 pbc="F F F"
C       -2.10221900       1.46510200       2.09085100
C       -1.55201800       0.33132700       1.65539000
C       -0.93950500       0.14963700       0.29425600
C        0.52037600      -0.34452200       0.37487700
C        1.13859300      -0.58771600      -0.98611900
C        1.44324700      -1.82388500      -1.40507400
C        1.40709300       0.62218600      -1.83827800
H       -2.53787700       1.53554700       3.08003300
H       -2.13362700       2.35375300       1.47086900
H       -1.53570700      -0.54166200       2.30938500
H       -0.98790000       1.08714400      -0.26767400
H       -1.52880400      -0.58625900      -0.26801000
H        0.55410000      -1.26598200       0.96425500
H        1.11603600       0.39981900       0.91631800
H        1.24953200      -2.69031900      -0.78488600
H        1.89253700      -1.99302300      -2.37578500
H        0.48051800       1.14764400      -2.07359200
H        1.88956400       0.34951900      -2.77336600
H        2.04822800       1.33104000      -1.31296200
