13
Properties=species:S:1:pos:R:3 pbc="F F F"
C        0.12262700       0.00176400       2.82265400
C       -0.20218400       0.00119000       1.65878300
C       -0.61491000       0.00035100       0.24940700
C       -0.12493500       1.17995000      -0.56383600
C        0.47657900       0.73004000      -1.68446900
C        0.47620200      -0.73252200      -1.68351300
C       -0.12570700      -1.18063500      -0.56235600
H        0.42568300       0.00237000       3.84083000
H       -1.72490300       0.00068700       0.23307200
H       -0.27359800       2.21534900      -0.27864700
H        0.90133500       1.34506700      -2.47051400
H        0.90047300      -1.34871300      -2.46893200
H       -0.27502300      -2.21559100      -0.27583500
