17
Properties=species:S:1:pos:R:3 pbc="F F F"
C       -3.56031800       0.41742800       0.00891400
C       -2.34906100       0.46404900      -0.03289800
C       -0.92376800       0.57380100      -0.11639400
C       -0.08057900      -0.32018200       0.43132100
C        1.43178400      -0.26363900       0.38953000
C        1.99670400      -1.57312300      -0.19178600
C        1.99300100       0.95373400      -0.35116200
H       -4.61903500       0.34981700       0.06223000
H       -0.54813100       1.44086000      -0.66116600
H       -0.49737200      -1.17658400       0.96150400
H        1.77617900      -0.20432100       1.43880800
H        1.71703200      -1.68833500      -1.23644600
H        1.61882100      -2.43439600       0.35501900
H        3.08288200      -1.58258200      -0.13191800
H        1.69924000       0.95043100      -1.39878200
H        3.08006100       0.95077200      -0.31061000
H        1.64374300       1.88192900       0.09620800
