17
Properties=species:S:1:pos:R:3 pbc="F F F"
N       -0.34421500       0.42598600       1.99188900
C       -0.68748900       0.51609100       0.57997300
C        0.18090300       1.27965700      -0.39819500
C        0.08440300      -0.23454800      -0.46760500
C        1.31224600      -1.04929600      -0.08467100
C       -0.70341800      -0.83123200      -1.62791900
H       -0.56894200       1.29507300       2.47203600
H        0.64505700       0.23284000       2.11891200
H       -1.76751900       0.59403500       0.41870300
H        1.10851400       1.70319300      -0.02767600
H       -0.30412300       1.85989300      -1.17718000
H        1.90600300      -0.55186500       0.67890900
H        1.95404200      -1.20586700      -0.95135600
H        1.02874800      -2.03084400       0.29448600
H       -1.56949100      -0.21946500      -1.87118200
H       -1.05674300      -1.83343700      -1.38577300
H       -0.08591200      -0.90948500      -2.52259500
