14
Properties=species:S:1:pos:R:3 pbc="F F F"
C       -0.73843300       1.65728800       1.02333400
C        0.73818200       1.48845200       0.86354600
C        1.34338300       0.46439400       0.22283500
C        0.69989700      -0.67096200      -0.42794800
N       -0.59646600      -0.81250000      -0.49569600
N       -1.06953000      -1.91684400      -1.18745100
H       -0.96967700       2.51562500       1.65043300
H       -1.19299900       0.77183900       1.47095400
H       -1.22678900       1.80144800       0.05737000
H        1.36946800       2.26117300       1.30076900
H        2.43193300       0.46331000       0.18230300
H        1.37011900      -1.43320900      -0.87075800
H       -1.98008100      -2.22247900      -0.84467800
H       -0.39817400      -2.68733400      -1.25496000
