14
Properties=species:S:1:pos:R:3 pbc="F F F"
O       -0.27791300      -1.47859500      -1.07264700
C       -0.95841400      -0.25270600      -0.79476300
C       -0.44077000       0.39876100       0.47508700
C       -1.28132700       0.93518300       1.37093300
C        1.06809200       0.41306600       0.68736800
O        1.79033500       0.27573100      -0.51580800
H       -0.46455700      -2.11888500      -0.37192500
H       -2.04828400      -0.43185400      -0.72930300
H       -0.78244900       0.40884200      -1.65776400
H       -2.35590200       0.89852700       1.23002600
H       -0.91446200       1.43105400       2.26248600
H        1.33769900      -0.41121500       1.39015600
H        1.38244100       1.34994000       1.17250500
H        1.42066100      -0.46932200      -1.02029000
