11
Properties=species:S:1:pos:R:3 pbc="F F F"
C       -2.12351000       0.02595700      -0.20789600
C       -0.78248100       0.02351700      -0.07555900
C        0.14330200      -1.15083700      -0.08921100
O        1.46594800      -0.56611900       0.09500700
N        1.36712300       0.78793500       0.20589800
C        0.11535100       1.15752700       0.11512400
H       -2.67892600      -0.89314700      -0.34692500
H       -2.68282400       0.95229700      -0.17918900
H        0.14340100      -1.71542000      -1.03729400
H       -0.03320300      -1.87379300       0.72554200
H       -0.16186000       2.20648500       0.18178200
