19
Properties=species:S:1:pos:R:3 pbc="F F F"
C       -1.41781300       0.48208100       1.69942900
C        0.09284300       0.47338300       1.60708500
C        0.79738500       1.30473600       0.57415900
C        0.81135200      -0.19199300       0.46144100
C        0.07170400      -0.94605600      -0.62498200
C       -0.67148400      -0.26769700      -1.73461400
C        0.60930200      -0.98344800      -2.02609100
H       -1.76572000       1.31767100       2.30674200
H       -1.78784000      -0.43410800       2.15959300
H       -1.87235700       0.57015300       0.71605000
H        0.59248000       0.40400100       2.57595100
H        1.72052700       1.80142100       0.85801100
H        0.18554000       1.86542900      -0.12467800
H        1.76030100      -0.66215200       0.73610200
H       -0.37058400      -1.88429800      -0.27855600
H       -0.66515000       0.81633500      -1.78181400
H       -1.59526400      -0.72295500      -2.07810800
H        1.48073500      -0.37833400      -2.25362000
H        0.55760200      -1.91920100      -2.57423900
