13
Properties=species:S:1:pos:R:3 pbc="F F F"
N       -0.54163900      -1.39563600       0.62623000
C       -0.93869600      -0.07349700       0.50556400
O       -1.88349300       0.37648000       1.14657800
C       -0.16710800       0.77134500      -0.53386100
C        1.32228100       0.62424500      -0.41780500
C        2.08469000      -0.04621700      -1.28461700
H       -0.94037700      -1.94419500       1.37861800
H        0.34647600      -1.68991700       0.24026300
H       -0.45681600       1.81670000      -0.40020600
H       -0.49873600       0.46635800      -1.53223500
H        1.78476100       1.09378600       0.44992600
H        1.66135900      -0.51904700      -2.16322100
H        3.15574400      -0.12133000      -1.14506300
