14
Properties=species:S:1:pos:R:3 pbc="F F F"
N       -2.17334200       0.95087300      -0.20156700
C       -0.70974200       0.95120000      -0.21194600
C       -0.16310900      -0.39225500       0.29298700
C        1.33830500      -0.42275600       0.34429600
C        2.09712700      -1.35265000      -0.23655700
H       -2.53599100       1.84004300      -0.53480900
H       -2.52842000       0.78574100       0.73680700
H       -0.28892500       1.77401100       0.40526700
H       -0.36604200       1.13102000      -1.23994500
H       -0.53742700      -1.20473700      -0.33582300
H       -0.55875700      -0.57253400       1.30265400
H        1.81621700       0.38015100       0.90824200
H        1.66016700      -2.16365900      -0.80785700
H        3.17708500      -1.32737500      -0.15624400
