9
Properties=species:S:1:pos:R:3 pbc="F F F"
C       -2.08293200       1.00674500       0.14640500
C       -0.74609600       0.95744600       0.13964300
C       -0.01764300      -0.33285600      -0.04824200
O       -0.57609400      -1.40327300      -0.20413000
C        1.46861900      -0.24355900      -0.03545800
N        2.61614200      -0.14311300      -0.02126300
H       -2.61771100       1.93982900       0.28215600
H       -2.66307400       0.09883000       0.01395500
H       -0.15514400       1.86265600       0.27167800
