18
Properties=species:S:1:pos:R:3 pbc="F F F"
C        0.22519200       2.37481200      -0.02740600
C       -0.10103400       1.01326700      -0.62784000
C        0.21004200      -0.16941200       0.32174600
O       -0.28217700      -1.40511300      -0.24153700
C       -1.66822700      -1.62356100      -0.08519600
C        1.70728600      -0.35032000       0.57465000
H       -0.06332700       3.17460700      -0.70632900
H        1.28980900       2.47823800       0.17198100
H       -0.30447400       2.52696500       0.91152700
H        0.45135300       0.88125500      -1.56306300
H       -1.16318600       0.98636500      -0.89164300
H       -0.30791500       0.00368700       1.29466900
H       -1.90203900      -2.61465500      -0.48725600
H       -2.27443800      -0.87435300      -0.62797100
H       -1.96642900      -1.59044700       0.97925300
H        2.23777300      -0.53240600      -0.35751100
H        1.88399600      -1.20010700       1.23030300
H        2.13673700       0.53303500       1.04262000
