15
Properties=species:S:1:pos:R:3 pbc="F F F"
C       -2.90560100      -0.14547800      -0.43120400
C       -1.42168600       0.00714600      -0.43959800
C       -0.63063500      -0.26222900       0.61568100
C        0.83218200      -0.11935800       0.61719100
C        1.57074500      -0.40921800       1.71417600
C        1.47850800       0.34009800      -0.59102800
C        2.02393400       0.72286400      -1.60278100
H       -3.22639500      -0.85474500      -1.19658200
H       -3.39516800       0.80302000      -0.65963100
H       -3.26874500      -0.49452000       0.53279400
H       -0.97123800       0.35833100      -1.36779600
H       -1.07621700      -0.61308800       1.54616400
H        1.09532200      -0.75614000       2.62363100
H        2.64758500      -0.30470100       1.71267700
H        2.51016900       1.05889500      -2.48587900
