17
Properties=species:S:1:pos:R:3 pbc="F F F"
C       -1.98301600       1.51699900       0.18956200
C       -0.49260000       1.25503300       0.20762100
C        0.35825400       1.64470900      -0.96762000
C        0.10568600       0.19418800      -0.67255100
C        1.25108700      -0.67825000      -0.16472300
C        0.78720700      -1.88863600       0.51740800
C        0.41306200      -2.89230700       1.07621900
H       -2.20520100       2.53755100       0.50067600
H       -2.50733000       0.84418200       0.86733000
H       -2.39292300       1.37402800      -0.80781700
H       -0.02636300       1.37896000       1.18655400
H        1.34964000       2.04112000      -0.76995500
H       -0.13391200       2.07756300      -1.83256200
H       -0.58217000      -0.31622900      -1.34744800
H        1.89693700      -0.97527700      -1.00427800
H        1.88332200      -0.10056400       0.52232700
H        0.07992300      -3.77175200       1.56968000
