14
Properties=species:S:1:pos:R:3 pbc="F F F"
C       -0.46101500       1.49232700      -1.98236900
O       -1.28053500       0.89067300      -1.00556200
C       -0.66237200       0.11025600      -0.03796100
C        0.66625100      -0.11214700       0.03655900
O        1.28144400      -0.89218600       1.00674000
C        0.45749600      -1.48973600       1.98241100
H       -1.10753900       2.06979600      -2.65111300
H        0.08345800       0.73801700      -2.57695200
H        0.28040100       2.17274700      -1.52828700
H       -1.38736300      -0.30486900       0.66130400
H        1.39270000       0.30140800      -0.66221200
H        1.10118400      -2.05885300       2.66070300
H       -0.27757800      -2.17723100       1.52848300
H       -0.09468900      -0.73311100       2.56680600
