17
Properties=species:S:1:pos:R:3 pbc="F F F"
N       -1.66609600      -0.55751800      -1.08927700
C       -0.19924200      -0.59637400      -1.04051500
C        0.35011300       0.12168900       0.22888000
O       -0.13986300       1.47871300       0.24849000
C       -0.12961200      -0.59314500       1.51115900
C        1.88456900       0.19630200       0.17864900
H       -2.00600300      -1.11708400      -1.86758200
H       -1.98584800       0.39852900      -1.22796300
H        0.25093600      -0.13645500      -1.94179500
H        0.12026100      -1.64679700      -1.03100800
H       -1.08637800       1.46370600       0.44516700
H       -1.21500100      -0.67091100       1.52231700
H        0.18214100      -0.04468800       2.39723800
H        0.27860300      -1.59982600       1.57479100
H        2.21122200       0.74443600      -0.70192900
H        2.32451200      -0.79848600       0.14372900
H        2.27216200       0.70966500       1.05501500
