14
Properties=species:S:1:pos:R:3 pbc="F F F"
C       -1.56561500       0.08055900      -0.50735300
C       -0.03024300       0.07109500      -0.42677900
C        0.48983500       1.41511700      -0.12554300
C        0.93119600       2.50971900       0.13244000
C        0.49438100      -0.95320400       0.61882400
O        0.17299100      -2.27991300       0.24923300
H       -1.90955900       0.80409800      -1.24223500
H       -2.00739200       0.33913700       0.45285700
H       -1.94139900      -0.89876300      -0.80045600
H        0.36435300      -0.22512600      -1.41338500
H        1.31258100       3.47748000       0.34822800
H        0.07702000      -0.72087400       1.61985200
H        1.58883800      -0.88819000       0.69068100
H       -0.78569400      -2.38817600       0.20105900
