23
Properties=species:S:1:pos:R:3 pbc="F F F"
C       -2.93545600       1.89082300       0.07366800
C       -1.41666000       1.80573900      -0.01214400
C       -0.89560700       0.37202600       0.14679700
C        0.62990700       0.28837000       0.02208400
C        1.20100900      -1.12625300       0.27436800
C        0.75927700      -2.13174600      -0.79724100
C        2.73271500      -1.07795100       0.36592200
H       -3.27326700       2.92037100      -0.02575300
H       -3.29617700       1.50970700       1.02714400
H       -3.40463900       1.30665600      -0.71569800
H       -0.97068800       2.44326000       0.75893400
H       -1.08321400       2.21092600      -0.97358100
H       -1.36774800      -0.26812500      -0.60539900
H       -1.20627200      -0.02151000       1.12103000
H        1.08431000       0.98157700       0.73899400
H        0.93643900       0.63465100      -0.97095900
H        0.81646600      -1.47727900       1.24613600
H        1.10189500      -1.82658400      -1.78399500
H       -0.32391900      -2.22336800      -0.83196300
H        1.17130100      -3.11763800      -0.59127900
H        3.16948800      -0.73200100      -0.56907900
H        3.13972500      -2.06443500       0.57900000
H        3.05519400      -0.40225500       1.15574300
