13
Properties=species:S:1:pos:R:3 pbc="F F F"
C       -1.84158900      -0.47871100       0.31936600
C       -0.34131300      -0.55668700       0.33319700
C        0.31598900      -1.56839300       0.92231500
C        0.36392100       0.60395400      -0.32802700
O       -0.23271600       1.64754100      -0.60576400
N        1.72394000       0.48118000      -0.59251300
H       -2.29058800      -1.27060600       0.91370900
H       -2.21678200      -0.55499100      -0.70191500
H       -2.16634100       0.48762300       0.70251100
H       -0.22039100      -2.37349100       1.41090900
H        1.39899000      -1.61241100       0.95394800
H        2.16194100      -0.43001900      -0.60328100
H        2.14527800       1.20432700      -1.16328100
