16
Properties=species:S:1:pos:R:3 pbc="F F F"
C       -2.39269100      -0.72498100      -0.62476400
C       -1.37339500      -0.99793400       0.19022700
C       -0.64369800       0.02641800       1.01461800
C        0.88382400      -0.01314900       0.81181700
C        1.29865500       0.36026300      -0.58432400
C        2.21696100       1.28202800      -0.87502000
H       -2.89135900      -1.50767500      -1.18326000
H       -2.75594500       0.28768900      -0.75621800
H       -1.03234200      -2.02891600       0.29506400
H       -0.85189800      -0.16184800       2.07693400
H       -1.02505300       1.02734700       0.79339000
H        1.24003800      -1.02930700       1.03131700
H        1.36604200       0.65093300       1.53622100
H        0.80166500      -0.17804000      -1.39137600
H        2.72622200       1.83900400      -0.09689300
H        2.48469300       1.50494800      -1.90050400
