12
Properties=species:S:1:pos:R:3 pbc="F F F"
C       -1.49225300       0.08285100      -1.16670100
C       -1.69356000      -0.12306400       0.14456700
C       -0.67987100      -0.22347000       1.18867900
C        0.66787800      -0.12529300       1.07814700
C        1.42781500       0.10434900      -0.10716000
C        2.19588800       0.29505700      -1.02943000
H       -2.33253200       0.13794100      -1.84841600
H       -0.50058000       0.19861600      -1.58436300
H       -2.71961300      -0.23150300       0.49759400
H       -1.07128700      -0.40132300       2.18999400
H        1.26873700      -0.22958300       1.98411700
H        2.79989600       0.46327100      -1.88753400
