21
Properties=species:S:1:pos:R:3 pbc="F F F"
C       -1.85969400      -1.94145500      -0.63598100
C       -2.20187500      -0.99761900       0.50946200
C       -1.60111200       0.40742900       0.33384700
C       -0.09498700       0.42065000       0.36505200
C        0.66428500       0.97376200      -0.58832900
C        2.16972000       1.04089900      -0.60578100
C        2.87099300       0.44425800       0.60579100
H       -2.31338200      -2.91870200      -0.48228800
H       -0.78387500      -2.07757900      -0.71971000
H       -2.21961300      -1.54922500      -1.58519700
H       -1.85072300      -1.42676400       1.45414600
H       -3.29055200      -0.90940900       0.59566300
H       -1.98082800       1.04616400       1.14404300
H       -1.95884900       0.84810700      -0.60250300
H        0.37196800      -0.04368900       1.23306500
H        0.17514400       1.42891200      -1.45122800
H        2.47027000       2.09195300      -0.71724600
H        2.53249100       0.54406600      -1.51655000
H        2.56836600       0.94541300       1.52279200
H        3.94993000       0.54803500       0.50886900
H        2.64567500      -0.61482200       0.71177700
