17
Properties=species:S:1:pos:R:3 pbc="F F F"
C       -2.59613400       0.82937200      -0.50465900
C       -1.07988800       0.95912600      -0.47219900
N       -0.44800800      -0.33516700      -0.17267600
C        1.00637700      -0.29758000      -0.22193900
C        1.76493800       0.03039600       1.02837700
C        1.76906200      -1.37003600       0.49046200
H       -3.06254500       1.78962900      -0.71343900
H       -2.97912300       0.46811700       0.44725400
H       -2.91196700       0.12861200      -1.27607200
H       -0.78177200       1.68713600       0.29713800
H       -0.72256200       1.37376200      -1.44031300
H       -0.80660700      -1.04887900      -0.81312000
H        1.44650200       0.07261100      -1.16664700
H        1.19707400       0.21365000       1.93363200
H        2.67997900       0.60795800       0.94148700
H        1.20532600      -2.11659000       1.03902400
H        2.68562800      -1.73750500       0.03953100
