12
Properties=species:S:1:pos:R:3 pbc="F F F"
C       -1.40026300      -0.00025600       0.16562500
O       -0.63405600      -1.15313800      -0.15756000
C        0.71039000      -0.73968100      -0.37232600
C        0.71015100       0.74001900      -0.37212700
O       -0.63443200       1.15297100      -0.15722900
C        1.36371100       0.00012200       0.77708700
H       -1.66312700      -0.00046100       1.25927600
H       -2.35666000      -0.00032900      -0.40741700
H        1.27199500      -1.39854600      -1.03927800
H        1.27152500       1.39923800      -1.03892300
H        0.87104300      -0.00006500       1.74279600
H        2.44919700       0.00027800       0.81230800
