21
Properties=species:S:1:pos:R:3 pbc="F F F"
C        1.18757400      -2.27497400       0.79714700
C        1.35006600      -0.79257200       0.47524200
C        0.04924700      -0.01137900       0.61744500
C       -0.14650200       1.29890500      -0.10087300
C       -0.96283300       0.09441500      -0.49659000
C       -0.76439000      -0.57294900      -1.84109400
C       -0.79642200       2.47238200       0.60194800
H        2.13642900      -2.79959200       0.70279000
H        0.47465800      -2.74568100       0.12350200
H        0.82670800      -2.41629500       1.81418900
H        1.74587200      -0.67895800      -0.53882700
H        2.10306100      -0.36067100       1.14650200
H       -0.38287800      -0.06390600       1.61934200
H        0.64761900       1.57601000      -0.79666200
H       -2.00366100       0.10825600      -0.16597400
H        0.26580900      -0.49273300      -2.18049400
H       -1.39956800      -0.11268500      -2.59795000
H       -1.02141900      -1.63153600      -1.79760700
H       -1.57014400       2.13699000       1.28969600
H       -1.25769100       3.15453400      -0.11245800
H       -0.06523100       3.04330600       1.17460000
