17
Properties=species:S:1:pos:R:3 pbc="F F F"
C       -2.00831500      -1.04144900       1.00396400
C       -2.00714200      -0.96061100      -0.33435900
C       -1.22581400      -0.03536300      -1.16041000
C        0.01572200       0.44138700      -0.93219500
C        0.91445600       0.08517700       0.19170200
C        2.39970400       0.27851400       0.03292300
C        1.63707800       1.17371200       0.94778800
H       -2.64701200      -1.75213100       1.51422000
H       -1.40585600      -0.38723900       1.62110300
H       -2.69066600      -1.60583200      -0.89001000
H       -1.71365100       0.26710800      -2.08796500
H        0.43682600       1.12960700      -1.66657400
H        0.60874500      -0.77662100       0.78397700
H        2.76049600       0.69892300      -0.90067500
H        3.05523800      -0.46453200       0.47583200
H        1.47622900       2.20044900       0.63609700
H        1.76551600       1.04206900       2.01751300
