16
Properties=species:S:1:pos:R:3 pbc="F F F"
C       -0.63589300      -1.17460800      -1.77743300
C        0.81520800      -1.00149300      -1.43175500
C        1.36863200      -0.32627000      -0.41383400
C        0.75546900       0.47380600       0.70717500
C       -0.77051500       0.58288900       0.77774700
O       -1.15510600       1.37253700       1.89552700
H       -0.73504300      -1.74283400      -2.69892300
H       -1.14002300      -0.21981500      -1.92533000
H       -1.17871600      -1.71482000      -1.00085900
H        1.50687500      -1.50080300      -2.11027600
H        2.45900700      -0.34199900      -0.36574100
H        1.17674500       1.48779300       0.67079300
H        1.12221500       0.05690500       1.65813100
H       -1.23490700      -0.42156600       0.85325000
H       -1.17691800       1.07398800      -0.11681200
H       -0.75578900       1.01691500       2.70014300
