17
Properties=species:S:1:pos:R:3 pbc="F F F"
N       -1.13663400       0.68750900       1.74336000
C       -1.49887800       0.95109300       0.34947300
C       -0.85558900      -0.06407900      -0.60381100
C        0.66142800       0.05803500      -0.67964700
C        1.54432700      -0.76828700       0.20628500
C        1.47718700      -1.05664700      -1.26097100
H       -1.51913000       1.40306200       2.35580300
H       -0.12571500       0.67207200       1.85095200
H       -1.21381000       1.97882600       0.03572800
H       -2.59399300       0.89511400       0.25421500
H       -1.28044900       0.08292600      -1.60505400
H       -1.12590100      -1.07855000      -0.29665900
H        1.01869800       1.06723800      -0.89575600
H        1.07306000      -1.47786000       0.87830200
H        2.45308900      -0.31717100       0.59286000
H        0.96086400      -1.95882500      -1.57276300
H        2.33886700      -0.80008600      -1.86911800
