19
Properties=species:S:1:pos:R:3 pbc="F F F"
C       -2.69576100      -1.04748400       0.22320600
C       -1.62042000      -0.64387000       0.90081400
C       -0.81801400       0.58447500       0.57529300
C        0.70319700       0.29734600       0.42773100
C        0.95413500      -0.65151000      -0.72582500
C        1.80395000      -0.46642900      -1.73604400
C        1.49565100       1.60412100       0.33950400
H       -3.24464800      -1.93408400       0.51619700
H       -3.05660200      -0.50334300      -0.64182900
H       -1.28731500      -1.21893700       1.76632600
H       -0.94758300       1.31590100       1.38483700
H       -1.20005800       1.05538400      -0.33485400
H        1.01903500      -0.22791600       1.34828600
H        0.36671100      -1.57002200      -0.69384400
H        2.40936100       0.42731600      -1.82474300
H        1.91557600      -1.21472900      -2.51134100
H        1.22369100       2.17282700      -0.54725900
H        2.56517600       1.40981600       0.30030600
H        1.30022000       2.22790000       1.20984600
