14
Properties=species:S:1:pos:R:3 pbc="F F F"
C        1.04020400      -1.16860600      -0.08831000
C        0.48908200       0.26869500      -0.01118400
C       -1.05279100       0.28396000       0.05803200
O       -1.52970300      -0.39033100       1.21270300
N        0.92974700       1.10180000      -1.14948400
H        2.12853100      -1.16946700      -0.06737700
H        0.72133900      -1.65810900      -1.00664300
H        0.68064900      -1.76073500       0.74967100
H        0.87969700       0.73894700       0.91181900
H       -1.41721600       1.33152000       0.05079400
H       -1.48607300      -0.21993600      -0.81868200
H       -1.15015600       0.01149700       2.00495400
H        0.56818200       0.72501200      -2.02318900
H        1.94547900       1.10701700      -1.20781300
