18
Properties=species:S:1:pos:R:3 pbc="F F F"
C       -0.94453500      -2.35651400      -0.46667800
N       -1.19821600      -1.07898800      -1.12843100
C       -0.75716800       0.10294500      -0.36879600
C        0.77151700       0.22067600      -0.30952500
C        1.25377200       1.53185700       0.31977100
N        0.97827300       1.58405900       1.75827400
H       -1.38857300      -3.16221600      -1.05533400
H       -1.36435900      -2.40734300       0.55441600
H        0.12964700      -2.54503800      -0.39156800
H       -2.19764600      -0.99456000      -1.32726800
H       -1.17352000       0.10035700       0.66150000
H       -1.17288800       0.99062800      -0.86860000
H        1.17248200       0.14754600      -1.32578700
H        1.18638200      -0.62271200       0.25018500
H        0.79636500       2.39021400      -0.21896500
H        2.34028600       1.62581100       0.17404600
H       -0.01597100       1.47738500       1.94095400
H        1.28587700       2.47064500       2.14889700
