14
Properties=species:S:1:pos:R:3 pbc="F F F"
C       -1.82207900      -1.44953500      -0.27535200
C       -0.31003200      -1.33447100      -0.14745200
C        0.23424300       0.07204900      -0.49918900
C       -0.17852200       1.15082000       0.50322800
O        0.64764100       1.82974200       1.06733200
O        1.65196800       0.05158300      -0.54848100
H       -2.14531500      -2.46941800      -0.08063800
H       -2.15322000      -1.18098300      -1.27705200
H       -2.33750500      -0.80004100       0.43050000
H        0.17166100      -2.05226800      -0.81691300
H        0.00231100      -1.60174000       0.86653100
H       -0.16709400       0.36536400      -1.49874700
H       -1.28407700       1.30386200       0.68868900
H        1.97471300       0.75143800       0.04940700
