15
Properties=species:S:1:pos:R:3 pbc="F F F"
N       -1.91159000       1.10606700       0.47728900
C       -0.49610400       0.97661000       0.13836000
C       -0.06312700      -0.45988600      -0.07389300
C       -0.93690000      -1.48544500      -0.07388700
C        1.36685100      -0.72593600      -0.29814500
C        2.34004500       0.19364800      -0.36123400
H       -2.16882000       2.08576400       0.56213600
H       -2.11589300       0.64068900       1.35822200
H        0.15769700       1.43510000       0.91253200
H       -0.30400700       1.54842500      -0.78333500
H       -1.99750700      -1.32360300       0.06813400
H       -0.59841800      -2.50241600      -0.23556700
H        1.63202900      -1.77574300      -0.42871500
H        2.14326400       1.25290200      -0.24442200
H        3.36820100      -0.09753400      -0.53721200
