19
Properties=species:S:1:pos:R:3 pbc="F F F"
C       -1.05584800       1.35723100       1.95010400
C       -1.34362200       0.77238100       0.57228400
C       -0.75947300      -0.63182700       0.35993500
C        0.77324700      -0.68495100       0.29066700
C        1.35909100      -0.07352100      -0.98699600
N        0.91990700      -0.80159600      -2.18038900
H       -1.51152000       2.33988700       2.05438800
H        0.01315500       1.46701500       2.12050200
H       -1.45345700       0.71872000       2.73669600
H       -0.96442600       1.45093200      -0.19865200
H       -2.42861200       0.72394400       0.42773600
H       -1.16638100      -1.04644600      -0.56739800
H       -1.10117800      -1.28622300       1.16995700
H        1.09047400      -1.73250900       0.35592400
H        1.20635500      -0.17894300       1.16003900
H        2.46726100      -0.06030100      -0.89985600
H        1.04917400       0.97698400      -1.08329400
H        1.17102300      -1.78451500      -2.11291300
H        1.34841700      -0.41324900      -3.01636800
