12
Properties=species:S:1:pos:R:3 pbc="F F F"
C       -1.31745100      -0.46527200       1.05951600
N        0.14753400      -0.52700200       1.09402200
C        0.80156900      -1.28853000       0.03802100
C        0.88387400       0.20957700       0.05100900
C        0.15667100       0.98261400      -0.94231700
N       -0.38976300       1.62202600      -1.73035100
H       -1.72616400      -1.30362400       1.63020000
H       -1.72587200      -0.50914400       0.03998300
H       -1.65526000       0.46136900       1.52950100
H        0.16771400      -1.76093300      -0.71559400
H        1.67630000      -1.86754400       0.34027600
H        1.81091200       0.68437700       0.39256900
