14
Properties=species:S:1:pos:R:3 pbc="F F F"
C       -0.75012400      -0.51136600       1.64225000
C        0.75062500      -0.41827800       1.40183900
N        1.10791500       0.52223000       0.32125400
C        0.77728000       0.06865600      -1.03360400
C       -0.63976600       0.25498200      -1.38339100
N       -1.73063100       0.38858500      -1.72398000
H       -0.95334200      -1.13415000       2.51090200
H       -1.26281300      -0.94966800       0.78959700
H       -1.17759100       0.47202100       1.82136400
H        1.15725700      -1.43128400       1.19809100
H        1.24744400      -0.06170400       2.31421700
H        2.11084800       0.71474400       0.36904600
H        1.03300700      -1.00067800      -1.19816800
H        1.37610600       0.65105400      -1.74852800
