18
Properties=species:S:1:pos:R:3 pbc="F F F"
C       -0.98037300      -0.13062300       2.28204200
N       -1.25418000       0.19515700       0.88543900
C       -0.77364400      -0.80696500      -0.08327500
C        0.75388500      -0.77376700      -0.29798800
N        1.23183300       0.56202900      -0.69565800
C        0.87242300       0.95574000      -2.05599000
H       -1.36058900       0.66969900       2.92200700
H        0.09395600      -0.25866800       2.50799900
H       -1.48817800      -1.05884200       2.56045800
H       -0.83383500       1.09929200       0.65306900
H       -1.28370600      -0.63520100      -1.04457800
H       -1.07398800      -1.80629700       0.25851200
H        1.03423700      -1.54799500      -1.04417500
H        1.26415300      -1.04215500       0.63726100
H        2.24807900       0.60165700      -0.59008400
H       -0.21241100       1.04275300      -2.15688600
H        1.22212400       0.23902700      -2.82117200
H        1.31284600       1.93012500      -2.27961100
