15
Properties=species:S:1:pos:R:3 pbc="F F F"
C       -2.46533700      -0.72331700      -1.30617700
C       -0.94320500      -0.69908000      -1.25925600
C       -0.40782200      -0.00294400      -0.00346200
C        1.12703300       0.01747200       0.03398700
C        1.64911000       0.68151500       1.22831300
N        2.06403200       1.20337100       2.16613400
H       -2.81589200      -1.22248000      -2.20658400
H       -2.87206500       0.28570000      -1.30048800
H       -2.87390100      -1.25176100      -0.44745700
H       -0.55679600      -0.19174600      -2.14967300
H       -0.55855300      -1.72373900      -1.29974900
H       -0.78658700      -0.50981400       0.88918900
H       -0.78622900       1.02280600       0.03938600
H        1.52171900       0.53129500      -0.85127100
H        1.52140900      -1.00574200       0.00328300
