13
Properties=species:S:1:pos:R:3 pbc="F F F"
N       -1.36600900      -0.00016800       0.42818000
C       -0.66314400      -1.21055400      -0.06626300
C        0.72823900      -0.73797300      -0.46862600
C        0.72806000       0.73816800      -0.46859800
C       -0.66346200       1.21038800      -0.06629300
O        1.37964600       0.00015600       0.57686100
H       -1.34510000      -0.00015400       1.44952100
H       -1.18834000      -1.64348600      -0.93801400
H       -0.65421200      -1.98025500       0.71520200
H        1.38911400      -1.34937200      -1.09863700
H        1.38880200       1.34975600      -1.09856300
H       -1.18873000       1.64312800      -0.93809900
H       -0.65479500       1.98014100       0.71512200
