18
Properties=species:S:1:pos:R:3 pbc="F F F"
C        1.86004400      -0.14601900       1.58566100
C        1.35116400       0.73229800       0.44714100
C       -0.13458800       0.53633700       0.17156700
C       -0.71104400       0.92167400      -1.16047100
C       -0.60553400      -0.52805100      -0.77940100
C       -1.85462800      -1.32933700      -0.48061000
H        2.92110500       0.01996900       1.76120900
H        1.71789000      -1.20059000       1.35945000
H        1.32962300       0.06915000       2.51121000
H        1.92245500       0.52073800      -0.46279700
H        1.54180200       1.78451400       0.69253000
H       -0.77800000       0.72085100       1.03357700
H       -0.03308100       1.29688800      -1.92101900
H       -1.69777500       1.37384300      -1.17559800
H        0.17718200      -1.09115800      -1.29078800
H       -2.60000700      -0.71798400       0.02334400
H       -1.63080900      -2.18122800       0.16123500
H       -2.30286800      -1.71640500      -1.39567700
