14
Properties=species:S:1:pos:R:3 pbc="F F F"
C       -0.94225000       0.25712100      -1.55080000
C       -0.90615900       0.17878400      -0.02586000
O       -1.52649100       0.95571800       0.66998200
C       -0.07091700      -0.96203500       0.58608700
C        1.41689000      -0.78305300       0.41706300
C        2.02879000       0.38520800       0.21958900
H       -1.42164400       1.17419700      -1.88068100
H       -1.50286900      -0.58764500      -1.95074100
H        0.06165600       0.20707800      -1.96768500
H       -0.37134500      -1.91241000       0.12857700
H       -0.30597000      -1.04395000       1.65363700
H        2.01240900      -1.69311100       0.49579300
H        1.47461800       1.31402400       0.15182400
H        3.10695300       0.43993100       0.13294900
