15
Properties=species:S:1:pos:R:3 pbc="F F F"
C        0.65282600       1.00713700      -1.66375300
C       -0.05498100       0.70848900      -0.33198000
C        0.13278300      -0.75003800       0.10435900
C        1.07175800      -1.09976000       1.20958900
N       -0.37113200      -1.15140100       1.42280200
O       -1.45433000       1.01099300      -0.43839600
H        0.48737900       2.03952600      -1.96166900
H        0.27692000       0.36526200      -2.45933800
H        1.72592300       0.84444900      -1.58142800
H        0.34330700       1.38058200       0.45157700
H       -0.03532400      -1.50039600      -0.67916500
H        1.62545300      -0.29433900       1.69837800
H        1.57974200      -2.06541900       1.20603300
H       -0.69431900      -0.33141700       1.94255900
H       -1.89082900       0.33864900      -0.97868300
