18
Properties=species:S:1:pos:R:3 pbc="F F F"
N       -0.22571800       1.96733600       1.38420200
C       -0.51076300       1.10173300       0.23659100
C       -0.02627400      -0.34417500       0.48318300
C       -0.64171700      -1.32498800      -0.53907700
N       -0.16269600      -1.08684600      -1.90298200
C        1.50389600      -0.44428100       0.48921300
H       -0.52713700       2.91990700       1.19618800
H        0.77038700       1.97897700       1.58781600
H       -0.05705200       1.49567100      -0.69740900
H       -1.59918800       1.09584500       0.07067700
H       -0.39088100      -0.64752200       1.47737200
H       -1.74999500      -1.26066400      -0.47577500
H       -0.37763900      -2.35480600      -0.25673600
H       -0.39884600      -0.14763900      -2.21204300
H       -0.57811300      -1.75348000      -2.54811100
H        1.91478800      -0.15939500      -0.47686000
H        1.82174600      -1.46384900       0.69930200
H        1.93997400       0.20379000       1.24757700
