16
Properties=species:S:1:pos:R:3 pbc="F F F"
C        1.21526700      -1.41836300       0.70093300
C        0.77652400       0.04774500       0.84421700
C       -0.76476800       0.23325600       0.72858900
C       -1.30683200      -0.20650400      -0.60341900
C       -1.64400600       0.62863500      -1.58794800
O        1.43235800       0.86261800      -0.12419800
H        2.29198800      -1.50319200       0.82685500
H        0.96319000      -1.81282000      -0.28159900
H        0.73547800      -2.04579600       1.44968700
H        1.09469800       0.42177500       1.83658300
H       -1.25010100      -0.33616600       1.52942400
H       -0.99838600       1.28870500       0.89289400
H       -1.40107800      -1.28127700      -0.76046300
H       -1.56854600       1.70311100      -1.46787700
H       -2.02120500       0.25872700      -2.53345700
H        1.03798700       0.69736900      -0.99269700
