17
Properties=species:S:1:pos:R:3 pbc="F F F"
C       -0.83464700      -2.54504200      -0.24772800
C        0.09027500      -1.91989600       0.74899000
C        0.31996400      -0.61211000       0.93073000
C       -0.30795700       0.53379500       0.18442400
C        0.72687400       1.57019700      -0.27509500
N        0.06933700       2.70692300      -0.92491900
H       -0.30660900      -3.28760300      -0.84766600
H       -1.27500000      -1.81444700      -0.92126300
H       -1.64766500      -3.06882400       0.25888000
H        0.62082400      -2.62464200       1.39002600
H        1.02716700      -0.32545300       1.71057700
H       -1.03425300       1.03473700       0.83884000
H       -0.87509200       0.17389700      -0.67974900
H        1.46720200       1.08365600      -0.94409200
H        1.29321000       1.93975900       0.59237300
H       -0.47900600       2.39648800      -1.72295600
H        0.75680700       3.38231100      -1.24846400
