16
Properties=species:S:1:pos:R:3 pbc="F F F"
C        1.22852500       0.35683900      -1.70174000
C        0.84395600       0.89078800      -0.32907400
C       -0.17313500       0.02846900       0.43097300
C       -0.64855900       0.62279600       1.75128800
C       -0.24504300      -1.44226300       0.24110700
O       -1.20631400      -0.57676000      -0.36143800
H        1.82488800       1.08930400      -2.24166700
H        0.33984400       0.13889100      -2.28858000
H        1.81509900      -0.55695900      -1.62544300
H        0.42367000       1.89720300      -0.44032800
H        1.74149800       1.01007300       0.29090600
H       -1.40900600      -0.00559100       2.20822900
H       -1.07555200       1.61372100       1.60098300
H        0.17817500       0.72470000       2.45489900
H       -0.64234000      -2.08104800       1.04113100
H        0.41976500      -1.95599200      -0.46394600
