19
Properties=species:S:1:pos:R:3 pbc="F F F"
C       -1.76674100       0.70545300      -0.15747700
C       -1.72812700      -0.79375000       0.15703100
C       -0.30123900      -1.23820900      -0.18418300
C        0.56744500       0.01503700       0.00019500
C       -0.36419400       1.22254500       0.18378400
C        1.86664900       0.15077700      -0.74174800
C        1.87152500      -0.05774700       0.74234800
H       -2.55130600       1.22694000       0.39789600
H       -1.97492100       0.85762700      -1.22154700
H       -2.48513200      -1.35535800      -0.39736300
H       -1.92704700      -0.95535700       1.22138100
H       -0.25077600      -1.59189900      -1.22064500
H        0.02976900      -2.07067500       0.44451600
H       -0.07645400       2.07092200      -0.44512100
H       -0.33266600       1.57885800       1.22020700
H        2.14944200       1.13131100      -1.11296700
H        2.19058400      -0.67614200      -1.36668000
H        2.15656200       0.78317300       1.36746800
H        2.20004200      -1.02404100       1.11315800
