19
Properties=species:S:1:pos:R:3 pbc="F F F"
C        1.89259800       0.24749400       1.98586100
C        1.18964600       0.06090900       0.86378800
C       -0.27939300       0.23441000       0.77661700
C       -0.95192800       0.78998700      -0.46732300
C       -1.14425600      -0.65383900      -0.10161800
C       -0.57190400      -1.79175600      -0.91810300
C       -0.16963300       1.23261500      -1.68435400
H        2.96609400       0.10989300       2.00454800
H        1.41180300       0.54340900       2.91091700
H        1.71106000      -0.23579900      -0.04571800
H       -0.74231900       0.53448600       1.71909000
H       -1.81037700       1.43251000      -0.25593100
H       -2.11960200      -0.88873500       0.33201100
H        0.39471300      -1.54119100      -1.34729800
H       -1.24257400      -2.05255000      -1.73709100
H       -0.44286100      -2.68207300      -0.30311900
H        0.67102200       0.57567900      -1.89137300
H        0.22074600       2.24069500      -1.54779000
H       -0.80849500       1.24475300      -2.56744600
