15
Properties=species:S:1:pos:R:3 pbc="F F F"
C       -1.32360200       0.64450900      -0.66976000
N        0.14027600       0.58245300      -0.58504600
C        0.62240900      -0.63828800       0.08942800
C        0.12740800      -0.75889400       1.46661400
C       -0.24418800      -0.91619900       2.60542300
C        0.78389600       0.77297100      -1.88836400
H       -1.75409100       0.56615500       0.33046700
H       -1.75262600      -0.16275000      -1.29109400
H       -1.62625600       1.59997500      -1.10629000
H        1.72472800      -0.61632500       0.10765000
H        0.33984700      -1.56031500      -0.46931300
H       -0.58464300      -1.02143800       3.60615400
H        0.44748700       1.71376200      -2.33071500
H        0.55812800      -0.03762400      -2.60611700
H        1.86996100       0.81679400      -1.76545800
