14
Properties=species:S:1:pos:R:3 pbc="F F F"
N       -2.42065800      -1.11244300      -0.45323800
N       -1.04740600      -1.02410300      -0.69118400
C       -0.31911000      -0.47929600       0.22945600
C        1.18106600      -0.43469700       0.09277800
C        1.80954600       0.91580000       0.31612900
C        1.15743800       2.06858700       0.46933000
H       -2.94799000      -1.07324500      -1.32546100
H       -2.75831500      -0.42225900       0.22322700
H       -0.76622900      -0.06141300       1.15206100
H        1.47159100      -0.80522300      -0.89860700
H        1.63395400      -1.13995600       0.80915900
H        2.90048400       0.91902900       0.33988800
H        0.07535400       2.11885100       0.44558200
H        1.69395700       2.99766700       0.61894800
