17
Properties=species:S:1:pos:R:3 pbc="F F F"
C       -2.35907200       0.21737600       0.27465000
C       -0.87992800      -0.03767300       0.40778100
C       -0.29561200      -0.12524500       1.60969800
C       -0.14364500      -0.18633200      -0.90916000
C        1.34705400      -0.52779600      -0.83131900
N        2.13623800       0.58144900      -0.29329900
H       -2.83667800       0.31146900       1.24652300
H       -2.84727900      -0.59295600      -0.26905400
H       -2.54638700       1.13293700      -0.28834300
H       -0.87719800      -0.00979800       2.51634300
H        0.76725600      -0.29446600       1.71356200
H       -0.27175800       0.74042600      -1.48558000
H       -0.65073200      -0.96146700      -1.49939500
H        1.68921500      -0.81616000      -1.84952400
H        1.50078800      -1.41307300      -0.19785900
H        1.97810300       1.43002300      -0.83020300
H        3.12822400       0.36094100      -0.31327500
