17
Properties=species:S:1:pos:R:3 pbc="F F F"
C       -1.57431900       0.74031400      -2.23756600
C       -0.74339800      -0.01265500      -1.24544800
C       -0.50268800       0.41149200       0.00106800
C        0.29325700      -0.32906800       1.06078700
N        0.97643300       0.65398700       1.93064500
C        1.27889800      -1.37086300       0.49322400
H       -1.00435700       0.95052400      -3.14404600
H       -1.92677700       1.68471800      -1.82941500
H       -2.44388600       0.15425500      -2.54088900
H       -0.32733200      -0.95798300      -1.59302500
H       -0.93141300       1.35942500       0.32609800
H       -0.43030700      -0.87029700       1.70601900
H        1.64541100       1.19693300       1.38987000
H        1.48286600       0.17444300       2.67111500
H        1.99567100      -0.90827600      -0.18199500
H        0.75857700      -2.15530200      -0.05177800
H        1.83601000      -1.84166500       1.30113700
