17
Properties=species:S:1:pos:R:3 pbc="F F F"
C       -1.41685300       1.67002400      -0.95861400
N       -1.66029100       1.08050700       0.35583300
C       -1.09117900      -0.26712400       0.51618800
C        0.41700100      -0.25254000       0.50720700
C        1.17060200      -1.18288500      -0.09124200
C        2.66683800      -1.20160100      -0.06623000
H       -1.87219300       2.66238000      -1.00488400
H       -1.82924000       1.06626000      -1.78741900
H       -0.34278000       1.77490000      -1.12908400
H       -2.66628500       1.04904300       0.53683300
H       -1.46566500      -0.97351800      -0.25588300
H       -1.44448100      -0.65769000       1.48662100
H        0.89788500       0.55937200       1.05225800
H        0.68764900      -1.99295200      -0.63932100
H        3.06725100      -0.35364700       0.48466100
H        3.07455100      -1.17616300      -1.07828100
H        3.03688800      -2.11677900       0.39981700
