14
Properties=species:S:1:pos:R:3 pbc="F F F"
N        0.67950200      -1.78614200       0.83527600
C       -0.41070600      -1.01010400       0.23625600
C        0.13424000       0.16758200      -0.55903100
C       -0.75115200       1.33207500      -0.87730800
C        0.36398800       1.48947800       0.10898000
H        0.31164600      -2.55164400       1.39390700
H        1.25399000      -1.19490300       1.43038700
H       -1.12596300      -0.63930700       1.00060700
H       -0.98712700      -1.67483000      -0.42686800
H        0.85795200      -0.10760100      -1.32716900
H       -1.76592600       1.32389300      -0.49183400
H       -0.64425500       1.81106400      -1.84524900
H        0.09779400       1.58699400       1.15702200
H        1.22715900       2.07513900      -0.19111600
