23
Properties=species:S:1:pos:R:3 pbc="F F F"
C       -2.83299500       0.13505700       0.82925100
C       -1.31202500       0.23275500       0.85158500
C       -0.65688600      -0.67234600      -0.19919900
C        0.89032400      -0.64941800      -0.22022100
C        1.48777900       0.74763900      -0.50743200
C        1.07536100       1.33546100      -1.85129900
C        1.48505800      -1.22878400       1.07103100
H       -3.27460300       0.78365100       1.58312100
H       -3.16338600      -0.88263500       1.02813900
H       -3.23090500       0.42901600      -0.14023100
H       -0.94784300      -0.03327600       1.84908600
H       -1.01527200       1.27258800       0.68172900
H       -1.03125100      -0.39604900      -1.19062800
H       -0.98255900      -1.70515900      -0.03130100
H        1.19816600      -1.31163400      -1.04719900
H        2.57984600       0.66569500      -0.47600400
H        1.21412200       1.44071500       0.29467500
H        1.32094900       0.65884300      -2.66774400
H        1.59086600       2.27682500      -2.03127600
H        0.00597600       1.53060900      -1.89026800
H        1.26790500      -0.59620900       1.92937100
H        2.56701500      -1.31663300       0.99146100
H        1.08128400      -2.21853100       1.27477700
