12
Properties=species:S:1:pos:R:3 pbc="F F F"
N       -1.14008600      -1.68008500      -0.36245700
C       -1.01548100      -0.34302800       0.22108500
C        0.13971800       0.41352500      -0.42195800
C        0.80571500       1.54073600       0.26310500
O        1.42418200       0.26230300       0.19133600
H       -1.86760800      -2.21188600       0.10884800
H       -0.26037500      -2.18400800      -0.27607300
H       -0.86427600      -0.37378100       1.31893400
H       -1.95737300       0.20556900       0.05283100
H        0.17243800       0.38378900      -1.52303700
H        0.48416900       1.84435700       1.26818900
H        1.30046200       2.33072900      -0.31657300
