12
Properties=species:S:1:pos:R:3 pbc="F F F"
N       -2.03328300       0.16731800       0.48287400
C       -0.77479700       0.03834500       0.18499600
C        0.07143500      -1.21821900       0.02026600
C        1.42722600      -0.65611500      -0.32220600
C        1.34614900       0.69361900      -0.34481900
N        0.05324400       1.12118900      -0.04698700
H       -2.49804600      -0.73223500       0.62177100
H       -0.32889700      -1.87252300      -0.76499400
H        0.07991800      -1.82076800       0.93771200
H        2.31251800      -1.24445200      -0.51742000
H        2.12496900       1.41864500      -0.55512500
H       -0.25027100       2.08599900      -0.00257800
