19
Properties=species:S:1:pos:R:3 pbc="F F F"
C       -2.52760900       0.06508400      -1.10575400
N       -1.06879400       0.03300800      -1.07201200
C       -0.52148500      -0.24225500       0.26327000
C        1.02206800      -0.27205200       0.25112700
C        1.62605800       1.11396400      -0.01440900
C        1.55811600      -0.84795300       1.56872100
H       -2.86642400       0.29691300      -2.11812600
H       -2.96448700       0.81451300      -0.42029600
H       -2.93296500      -0.91111300      -0.82453800
H       -0.69433500       0.91518800      -1.42816100
H       -0.89944900      -1.22040300       0.59820800
H       -0.87592300       0.49700100       1.01425200
H        1.33972200      -0.94030800      -0.56440500
H        1.33002500       1.82433200       0.75535300
H        1.30595900       1.50910000      -0.97645300
H        2.71301000       1.06402800      -0.02128900
H        1.26623600      -0.22789600       2.41451600
H        2.64480900      -0.90210600       1.55565900
H        1.17249800      -1.85103200       1.74163200
