19
Properties=species:S:1:pos:R:3 pbc="F F F"
C       -2.84671900       1.77301500       0.03079400
C       -1.40052500       1.49226900       0.29218100
C       -0.88689900       0.26546200       0.44471500
C        0.56355100      -0.00806600       0.73644800
C        1.26120700      -0.92131100      -0.25590000
C        0.72247100      -1.27418400      -1.43064200
C        2.62760800      -1.39680000       0.15950700
H       -2.97528400       2.30972200      -0.91070900
H       -3.26851700       2.40512700       0.81417800
H       -3.42942600       0.85602900      -0.01744800
H       -0.74383300       2.36037800       0.35611000
H       -1.54315400      -0.60232400       0.37993400
H        0.65158700      -0.46106500       1.73601200
H        1.11764800       0.93818400       0.79630500
H       -0.25677700      -0.92222200      -1.72889000
H        1.25646400      -1.91910000      -2.11777100
H        2.57344300      -1.97877000       1.08079600
H        3.28938600      -0.55239700       0.35729900
H        3.08429600      -2.01586300      -0.60843300
