13
Properties=species:S:1:pos:R:3 pbc="F F F"
C       -2.27950800      -0.08127200      -0.72803000
C       -0.75043700      -0.03586600      -0.74214000
O       -0.12521700      -0.05034800      -1.80078600
C       -0.07348900       0.02071900       0.56767700
C        1.28891900       0.04821100       0.63248000
N        2.01583300       0.12520700       1.79062300
H       -2.67602800      -0.10148900      -1.73857800
H       -2.68526300       0.78680400      -0.21038300
H       -2.63068700      -0.96622800      -0.19874200
H       -0.66236200       0.03744100       1.48152700
H        1.86917400       0.03681400      -0.29038700
H        1.54652100       0.02852800       2.68156000
H        3.01663600      -0.00629100       1.76700700
