14
Properties=species:S:1:pos:R:3 pbc="F F F"
C        0.95202400       0.83384100      -1.25432000
C        0.34931200      -0.40039400      -0.56703200
C       -1.12164400      -0.32256400      -0.52125000
C       -2.32600200      -0.25686600      -0.44544900
C        0.91823100      -0.58660300       0.86621300
O        0.57923000       0.49940600       1.70259600
H        2.02958200       0.71981400      -1.35538100
H        0.76185700       1.72917600      -0.66779700
H        0.52797400       0.97570600      -2.24583700
H        0.61689500      -1.29547200      -1.15629400
H       -3.38705500      -0.20709600      -0.41715900
H        2.01606000      -0.65425000       0.82883300
H        0.53941300      -1.53872800       1.29511700
H       -0.37010000       0.67111900       1.62877800
