13
Properties=species:S:1:pos:R:3 pbc="F F F"
O       -2.39050700       0.47725700       1.32054900
C       -0.97898800       0.47658800       1.35361000
C       -0.44720200       0.00403100       0.00180500
C        1.08563700      -0.01234700      -0.03913000
C        1.60802200      -0.47386100      -1.32543900
N        2.02444600      -0.83646100      -2.33466300
H       -2.74315200       0.77362700       2.16909100
H       -0.61154600      -0.18634500       2.16780700
H       -0.59697300       1.49535100       1.58525400
H       -0.83106700       0.65707600      -0.78679800
H       -0.83331100      -0.99679600      -0.21039900
H        1.48106700      -0.66383000       0.75073200
H        1.48310100       0.99162200       0.15749200
