17
Properties=species:S:1:pos:R:3 pbc="F F F"
C       -1.81185000      -1.67832300      -0.91685900
C       -0.29196900      -1.53573700      -0.85754200
C        0.16081500      -0.29425100      -0.13701600
C        0.95598700      -0.23200000       0.95961200
C        1.17739800       1.20063100       1.34529400
C        0.39587700       1.94997800       0.30845100
C       -0.18587100       1.07434600      -0.53866900
H       -2.09302200      -2.58218200      -1.45407900
H       -2.26482700      -0.83017100      -1.42596100
H       -2.23910200      -1.73416700       0.08189300
H        0.10117600      -1.52292900      -1.88285500
H        0.13951800      -2.41718500      -0.37238300
H        1.37708200      -1.07618700       1.49449000
H        2.24080900       1.47590800       1.33800800
H        0.82403200       1.41793200       2.36245300
H        0.32418000       3.03147700       0.26600300
H       -0.81216900       1.32965000      -1.38719800
