17
Properties=species:S:1:pos:R:3 pbc="F F F"
C       -2.50010900       0.30721300      -0.29142800
C       -1.53014200      -0.03999200      -1.36655200
N       -1.11795800       0.78158800      -0.22809300
C       -0.24958500       0.13394200       0.77438400
C        1.21836000       0.29841800       0.40354000
C        1.96746400      -0.76049600      -0.33056100
N        2.18085500      -0.55670900       1.10298000
H       -2.80003800      -0.47782500       0.40717000
H       -3.25486300       1.07553200      -0.46838700
H       -1.57838600       0.47532600      -2.32772600
H       -1.15714100      -1.06623700      -1.41350200
H       -0.48837200      -0.93979200       0.89484800
H       -0.43810000       0.61230600       1.74928300
H        1.53705600       1.33397800       0.22747200
H        2.77674700      -0.46839100      -1.00322300
H        1.46868900      -1.69384300      -0.59671600
H        3.05819800      -0.05971800       1.27027500
