13
Properties=species:S:1:pos:R:3 pbc="F F F"
O       -1.92510000      -0.03823000       0.89508700
C       -0.83500400      -0.01693400       0.36596700
C       -0.00885700       1.23706500       0.07420600
N        1.11854400       0.75264500      -0.72313800
C        1.33022600      -0.68434800      -0.46145200
C       -0.04642600      -1.24280700      -0.10951600
H        0.30640700       1.70077100       1.02905100
H       -0.59506200       1.99835100      -0.46449900
H        1.96998400       1.29659000      -0.57953000
H        2.03694900      -0.84628100       0.37600100
H        1.77275700      -1.17234900      -1.34294600
H       -0.01380600      -2.02517100       0.65216100
H       -0.54587000      -1.67244400      -0.98419300
