21
Properties=species:S:1:pos:R:3 pbc="F F F"
C       -3.13339500      -0.51742000       1.84698300
C       -1.61784900      -0.66309400       1.79327700
C       -1.03470700      -0.26554200       0.43257200
C        0.49443300      -0.41267800       0.38455900
C        1.06767600      -0.07675700      -0.96637600
C        2.04590900       0.81457800      -1.16824900
C        2.62641600       1.13790200      -2.50901600
H       -3.51660500      -0.80344800       2.82436400
H       -3.61361800      -1.14737900       1.10078700
H       -3.43424900       0.51083500       1.65616800
H       -1.34228100      -1.69886800       2.02007100
H       -1.16453000      -0.04796600       2.57805000
H       -1.31077200       0.76909800       0.20497900
H       -1.48439100      -0.88232900      -0.35304900
H        0.75542400      -1.44971900       0.63994000
H        0.95364200       0.21792200       1.15331100
H        0.64639400      -0.61103700      -1.81870000
H        2.46500200       1.35302400      -0.31788700
H        2.15227000       0.55972500      -3.29873500
H        3.69791200       0.93084900      -2.53031600
H        2.50490200       2.19736000      -2.74148700
