16
Properties=species:S:1:pos:R:3 pbc="F F F"
N       -1.42594600      -0.54804300       1.38237200
C       -0.41977200      -1.09875300       0.47495400
C        0.35772600      -0.01607900      -0.29360100
N        1.45819800      -0.54347200      -1.10370700
C       -0.35549200       1.18281700      -0.85631700
C        0.56793300       1.33897300       0.31734800
H       -1.90405700      -1.29483300       1.87941300
H       -2.11796400      -0.00540800       0.87188300
H       -0.86546500      -1.80962300      -0.25726500
H        0.29196500      -1.69415900       1.06855700
H        1.11686000      -1.21975200      -1.78414200
H        2.15234900      -1.00352300      -0.51784100
H       -1.42137900       1.29176600      -0.68090500
H       -0.01552700       1.56716200      -1.81171200
H        0.11766600       1.53406900       1.28477100
H        1.51741700       1.83315600       0.14228700
