15
Properties=species:S:1:pos:R:3 pbc="F F F"
C       -1.27658500       1.00418200       0.85797700
C        0.09122200       1.24429400       0.23408100
C        0.76619100       0.01824400      -0.37621400
C        0.65764400      -1.35030400       0.22363200
C        0.00471200      -1.05577800      -1.09109300
H       -1.67357000       1.93234200       1.26400300
H       -1.22255900       0.28239100       1.67010900
H       -1.98829100       0.63115500       0.12463000
H        0.75975200       1.66963900       0.99325300
H       -0.00202300       2.01413900      -0.54222200
H        1.74126600       0.25390000      -0.80892300
H        0.01447600      -1.48874500       1.08618700
H        1.54286200      -1.97863000       0.22166300
H       -1.07811300      -0.99580400      -1.11383500
H        0.44709800      -1.48421700      -1.98515800
