14
Properties=species:S:1:pos:R:3 pbc="F F F"
O        0.59740000       1.47265900       1.00408300
C       -0.02491500       0.31827900       1.52014100
C        0.40212900      -0.94699500       0.75570700
C        0.05349700      -0.94607400      -0.72900300
C       -1.13853800      -0.28399600      -1.30076600
O        0.15792900       0.29803800      -1.43694300
H        0.58217900       1.42049900       0.02925200
H       -1.13439300       0.42136100       1.48962200
H        0.25338800       0.22083400       2.58253600
H       -0.05269200      -1.82916700       1.22487700
H        1.48574700      -1.07625800       0.85561700
H        0.47253200      -1.79465500      -1.29563600
H       -1.82988600       0.27696600      -0.66170100
H       -1.57254400      -0.65245000      -2.23815900
