17
Properties=species:S:1:pos:R:3 pbc="F F F"
C       -2.09978400      -0.28395000      -1.56764100
C       -1.33301100       0.73320600      -1.17456000
C       -0.82588700       0.91980300       0.23542700
C        0.64486000       1.24481100       0.29245500
C        1.64115400       0.42432200       0.67407500
C        1.55088400      -0.98563200       1.06870200
C        0.71232000      -1.90225800       0.56640200
H       -2.44892300      -0.36131300      -2.59007400
H       -2.40133400      -1.06605100      -0.88018400
H       -1.04846300       1.50170200      -1.89376500
H       -1.05420900       0.03612600       0.83689700
H       -1.37500200       1.76231400       0.68446000
H        0.90618500       2.27093100       0.02954200
H        2.64369900       0.85092100       0.73727300
H        2.28580100      -1.30388000       1.81051400
H        0.00397800      -1.66438800      -0.21723000
H        0.74505500      -2.92816600       0.91339800
