15
Properties=species:S:1:pos:R:3 pbc="F F F"
N       -2.22281800       0.01553800      -0.14047400
C       -0.85890400       0.01234300      -0.67308000
C        0.03837000      -1.09808800      -0.07860500
C        0.84528800      -0.01233100       0.67328100
C        0.05059800       1.09921700      -0.05388000
O        2.24687400      -0.01822200       0.45902900
H       -2.73327900      -0.80672900      -0.45329200
H       -2.72460900       0.84629600      -0.44500100
H       -0.85619700       0.02442400      -1.78810300
H        0.62225900      -1.63598000      -0.82946100
H       -0.47557300      -1.82966900       0.54807300
H        0.68269300      -0.02367400       1.76374200
H        0.64051300       1.64833100      -0.79167600
H       -0.45643700       1.82108100       0.58959100
H        2.43324700      -0.01392000      -0.48908800
