13
Properties=species:S:1:pos:R:3 pbc="F F F"
O       -2.78407200       0.63336700       1.01177800
C       -1.56024000       0.63783200       1.01856100
N       -0.81228800       0.02212500       0.03529900
C        0.58727200       0.00566800       0.00835300
C        1.30396000      -0.60054100      -0.95887500
C        2.79989000      -0.61797100      -0.98676500
H       -0.94062100       1.13923100       1.81902800
H       -1.31494600      -0.44820200      -0.71491200
H        1.06420300       0.52686600       0.83938500
H        0.78359700      -1.10827100      -1.76850800
H        3.21790300      -0.08462500      -0.13620100
H        3.18163300      -0.15603900      -1.89937300
H        3.18153600      -1.64069600      -0.96837800
