11
Properties=species:S:1:pos:R:3 pbc="F F F"
C        0.29605100       1.01268300      -0.03086700
C        1.02154100      -0.33424600       0.06601200
C       -0.36456100      -0.98890700       0.05727500
N       -0.99713300       0.31972000      -0.21295700
H        0.57541800       1.65950800      -0.87837600
H        0.34770700       1.62190000       0.88634200
H        1.61674200      -0.49092500       0.96931300
H        1.64221600      -0.57724000      -0.79980500
H       -0.66106500      -1.43450400       1.02092100
H       -0.54652900      -1.73979500      -0.72870000
H       -1.71273900       0.58584200       0.46648200
