21
Properties=species:S:1:pos:R:3 pbc="F F F"
C        0.95777400      -1.05776200       1.56119700
C        0.14403700       0.22883400       1.38549900
C        0.49340000       0.96120200       0.05764300
C        0.15881900       0.20271400      -1.21279800
C        1.01755000      -0.67202600      -1.75709700
C       -1.16202500       0.50881300      -1.86510900
C       -1.35685000      -0.04556900       1.53089500
H        2.02532700      -0.85308800       1.50964400
H        0.71639800      -1.78362500       0.78822800
H        0.74779000      -1.51436400       2.52646700
H        0.43346500       0.91900800       2.19603200
H        1.56595200       1.18170900       0.07329500
H       -0.02712700       1.92505600       0.04994000
H        1.97932000      -0.87367700      -1.30275000
H        0.77368400      -1.20337500      -2.66858000
H       -1.21030700       1.55967900      -2.15539500
H       -1.99261300       0.33272500      -1.18161200
H       -1.31659700      -0.09642500      -2.75482600
H       -1.69691700      -0.77869700       0.80320500
H       -1.93732800       0.86458600       1.39261800
H       -1.57727500      -0.43675100       2.52236100
