14
Properties=species:S:1:pos:R:3 pbc="F F F"
C       -0.88627900      -0.53255400       1.46213400
O       -1.14735500      -0.82482000       0.10189800
C       -0.62064100       0.12625400      -0.82470700
C        0.91608200       0.09465300      -0.93010400
N        1.56073400       0.93479800       0.08452000
H       -1.42063900      -1.26876100       2.07233200
H       -1.24268000       0.47852700       1.72939100
H        0.18932700      -0.59132600       1.69522000
H       -0.96619400       1.14717000      -0.55828400
H       -1.05995500      -0.12518400      -1.80370600
H        1.20530700       0.40909500      -1.95643500
H        1.27231600      -0.93678000      -0.81313400
H        1.24939500       1.89982600       0.00542500
H        2.57185500       0.91229400      -0.02156700
