16
Properties=species:S:1:pos:R:3 pbc="F F F"
C        0.15457000      -0.09229200       2.15912200
C       -0.68982000      -0.45054800       0.94059800
C       -0.01185000      -0.10938500      -0.39222600
C        1.30603300      -0.80956400      -0.69287200
C       -0.84928900       0.37062000      -1.52158000
O       -0.05804000       1.27873600      -0.75765900
H       -0.39392100      -0.29254800       3.07729900
H        0.41933500       0.96188500       2.14496900
H        1.07552900      -0.67133300       2.18721500
H       -1.64440500       0.08136700       0.99586500
H       -0.92779200      -1.52152600       0.96087300
H        1.17502100      -1.89130700      -0.72557100
H        2.04995100      -0.59054100       0.07140800
H        1.70483800      -0.48486500      -1.65070000
H       -1.93369000       0.49173300      -1.39892100
H       -0.51841800       0.23426600      -2.55941400
