16
Properties=species:S:1:pos:R:3 pbc="F F F"
C        0.64703800       1.74684100       0.67953100
C        0.53688900       0.52230300      -0.23553300
C       -0.65995800      -0.36463400       0.15991200
C       -0.62730800      -1.83498900      -0.08246500
N       -0.50998500      -1.30441500       1.27621600
N        0.45311800       0.96233500      -1.64568800
H        1.51186900       2.35041700       0.41412900
H        0.74620400       1.44381100       1.71936500
H       -0.23877500       2.37441400       0.59578300
H        1.45869500      -0.08062200      -0.13033000
H       -1.63801800       0.13127800       0.12900700
H        0.26867600      -2.27507700      -0.52648000
H       -1.55201100      -2.37418700      -0.29386400
H        0.46337100      -1.33714800       1.58993900
H       -0.34183200       1.58311500      -1.77757800
H        0.33992100       0.16144100      -2.26234100
