13
Properties=species:S:1:pos:R:3 pbc="F F F"
C       -1.89333800      -0.29963600      -0.49067000
C       -0.38373000      -0.31233100      -0.68874400
C        0.43871700      -1.37558100       0.10233100
N        1.24746700      -0.29884000       0.67316500
C        0.46150100       0.70439400       0.12343500
O        0.48729200       1.91476900       0.27238800
H       -2.35955600      -1.15419000      -0.97974300
H       -2.32209500       0.60684800      -0.91223500
H       -2.15237600      -0.33451100       0.56573600
H       -0.14079000      -0.30914800      -1.75981000
H        1.01311700      -2.09857300      -0.49817500
H       -0.14558100      -1.93447100       0.85031900
H        1.73777900      -0.30330600       1.56453500
