13
Properties=species:S:1:pos:R:3 pbc="F F F"
C       -2.11335100      -0.46466500       0.50100500
N       -0.65191600      -0.51562900       0.56127000
C        0.01817900      -1.28346100      -0.48393500
C        0.06499100       0.21641800      -0.49815900
C        1.27343700       0.93769700      -0.13713200
C        2.28573300       1.55690700       0.09706400
H       -2.53220300      -1.33491700       1.01416200
H       -2.50374600      -0.45370100      -0.52975000
H       -2.47299000       0.43246200       1.01226100
H       -0.60759000      -1.78082800      -1.23024800
H        0.89551400      -1.84703800      -0.16453000
H       -0.55659900       0.72147500      -1.25099300
H        3.16708600       2.09457500       0.34714900
