21
Properties=species:S:1:pos:R:3 pbc="F F F"
C       -2.55886400      -0.61131800      -1.16779400
C       -1.70051800       0.40040700      -1.03391100
C       -1.18218200       0.91016000       0.28296800
C        0.34869100       1.04455600       0.32091300
C        1.10954900      -0.28579200       0.11735800
C        2.61294400      -0.02183400      -0.04416800
C        0.85645200      -1.27770200       1.25991200
H       -2.91194400      -0.92471200      -2.14262600
H       -2.93083700      -1.15512400      -0.30701000
H       -1.34553400       0.92222000      -1.92381800
H       -1.53096100       0.26667800       1.09621700
H       -1.61542900       1.90319800       0.46827800
H        0.64340800       1.49072100       1.27699900
H        0.66090500       1.74997400      -0.45754200
H        0.74376700      -0.74290900      -0.81546400
H        3.02816900       0.43776300       0.85087300
H        2.80502100       0.64553000      -0.88224100
H        3.15227200      -0.94998600      -0.22198700
H        1.16325100      -0.85948000       2.21689000
H        1.41840500      -2.19582500       1.10116500
H       -0.19692300      -1.53890500       1.32859400
