17
Properties=species:S:1:pos:R:3 pbc="F F F"
C       -2.15445400       1.73723900      -1.21327500
C       -1.04252400       1.25525200      -1.26739200
C        0.28376600       0.73359500      -1.41083500
C        0.88850200      -0.08366400      -0.52963500
C        0.26853000      -0.58775300       0.75691000
C        0.15785400      -2.12218800       0.74107100
C        1.08368300      -0.11355100       1.97231100
H       -3.13366300       2.14069800      -1.13014500
H        0.81200300       1.04425100      -2.31393900
H        1.90429100      -0.41688900      -0.74290200
H       -0.74577600      -0.17038600       0.83783900
H        1.13865000      -2.58490700       0.64875000
H       -0.45287200      -2.45827100      -0.09372000
H       -0.29822800      -2.48184400       1.66130300
H        2.10373800      -0.49075100       1.93075000
H        0.63256300      -0.46794800       2.89683700
H        1.12715300       0.97247000       2.01030000
