13
Properties=species:S:1:pos:R:3 pbc="F F F"
C       -2.58810600       0.03893700      -0.41929500
C       -1.39721600      -0.55713100      -0.36378000
C       -0.53336000      -0.59979600       0.87210500
N        0.87118000      -0.34029100       0.57958600
C        1.30432800       0.59368800      -0.33779700
O        2.48407500       0.89903800      -0.45813600
H       -3.18882200       0.01045000      -1.31977500
H       -2.99315000       0.57282600       0.43297200
H       -1.01548500      -1.08874100      -1.23527700
H       -0.60313800      -1.60428900       1.32328300
H       -0.92613900       0.10227700       1.63392700
H        1.55962800      -0.68099500       1.24689400
H        0.48237300       1.02401300      -0.98144000
