14
Properties=species:S:1:pos:R:3 pbc="F F F"
C       -1.05869400      -1.21742700      -1.03027400
O       -1.10275600       0.18113400      -1.27532200
C       -0.56614700       0.98255500      -0.25143500
O        0.85265400       0.78004800      -0.15661900
C        1.40115300       0.06828200       0.85358000
C        0.78491100      -0.53235000       1.89000300
H       -1.53106700      -1.71880300      -1.87968800
H       -1.60729900      -1.47573600      -0.10834200
H       -0.02233200      -1.57465100      -0.93240100
H       -1.06115500       0.78562100       0.72832000
H       -0.73239200       2.04006600      -0.53597800
H        2.49173800       0.02376000       0.75327800
H       -0.28561700      -0.52119600       2.03600400
H        1.38160700      -1.05487200       2.62308300
