16
Properties=species:S:1:pos:R:3 pbc="F F F"
N       -0.27138600      -2.13219200      -1.07594800
C       -0.17290800      -0.68093300      -1.25785400
C        0.47834800      -0.02577400      -0.03240500
C       -0.35301600       0.05745800       1.26534800
C       -0.08875700       1.56672600       1.24312500
N        0.53596700       1.46177000      -0.09353200
H       -0.74249600      -2.56297200      -1.86728300
H       -0.79443300      -2.35120600      -0.23151300
H       -1.16366100      -0.21794600      -1.44339300
H        0.43740600      -0.47609400      -2.14973700
H        1.47555700      -0.47503400       0.14138000
H        0.04815800      -0.48468300       2.12558200
H       -1.40472600      -0.21598100       1.14530100
H        0.60218000       1.91502700       2.02816600
H       -0.97752200       2.21815600       1.26544200
H        1.48546900       1.83882500      -0.13686400
