19
Properties=species:S:1:pos:R:3 pbc="F F F"
C       -1.51016800      -0.97003700      -3.11293700
C       -1.50994200      -1.31452800      -1.62447000
C       -0.95774500      -0.20832200      -0.76881600
C        0.01080400      -0.37502500       0.15314600
C        0.52326400       0.70364100       0.98828900
C        1.49048900       0.53617700       1.91187600
C        2.02494000       1.63066600       2.77572700
H       -1.94946900      -1.77728500      -3.69550800
H       -0.49832600      -0.80503700      -3.47617500
H       -2.08462700      -0.06568600      -3.30327900
H       -0.94307400      -2.23588800      -1.45590500
H       -2.54349400      -1.52713100      -1.31465100
H       -1.39001300       0.78215100      -0.91465600
H        0.44868700      -1.36317200       0.29853000
H        0.08716300       1.69223900       0.84324100
H        1.92500900      -0.45342200       2.05543900
H        1.53686500       2.57992400       2.56682400
H        3.09900700       1.75866400       2.62591700
H        1.88241800       1.39921800       3.83332400
