19
Properties=species:S:1:pos:R:3 pbc="F F F"
C       -0.41507200       0.31464500      -2.07085800
C       -0.37726000      -0.69866900      -0.92699400
C        0.10953500      -0.09126900       0.37640500
C       -0.72570800       0.35488400       1.34613800
C       -2.21962100       0.35223500       1.33150000
C        1.55741400       0.03488100       0.59852500
C        2.53117300      -0.33690500      -0.24610000
H       -0.75086700      -0.15772300      -2.99235700
H        0.56993500       0.74061700      -2.24792900
H       -1.09618900       1.13200200      -1.84408100
H        0.27797400      -1.53069800      -1.20604200
H       -1.37537400      -1.12597600      -0.79324400
H       -0.27517600       0.77739600       2.24585000
H       -2.63189500      -0.15621100       0.46396000
H       -2.60588300       1.37435900       1.33477300
H       -2.61182100      -0.13052700       2.22859300
H        1.84306700       0.48092000       1.55296000
H        2.32051200      -0.78516100      -1.20942100
H        3.57294900      -0.19781200       0.01523900
