19
Properties=species:S:1:pos:R:3 pbc="F F F"
C       -1.05682700       1.26285400       1.51400300
C        0.16139300       1.16158000       0.63452600
C        0.42361600       0.13391600      -0.19777600
C       -0.41115600      -1.07902900      -0.41661200
C       -0.46926600      -1.69820100      -1.78873100
C        0.26038800      -2.39902900      -0.69244200
C        1.11829100       2.32240600       0.73937800
H       -1.72410900       0.41283700       1.40429400
H       -1.62158500       2.16812100       1.28471100
H       -0.76693300       1.33125000       2.56398500
H        1.34129400       0.17441000      -0.78487400
H       -1.33358400      -1.13680200       0.16104800
H        0.12026700      -1.24209600      -2.57745800
H       -1.41669300      -2.11365000      -2.11733400
H        1.34436600      -2.41758700      -0.73807400
H       -0.18812500      -3.29367400      -0.27195100
H        0.62633100       3.26004300       0.47474600
H        1.97714600       2.19306700       0.08518000
H        1.48299100       2.43709800       1.76165400
