15
Properties=species:S:1:pos:R:3 pbc="F F F"
C       -0.99416800      -2.04115400      -0.48854600
C       -1.27299000      -0.65333000       0.07862200
N       -0.73908600       0.42628500      -0.77580400
C        0.72530700       0.56959200      -0.73977200
C        1.24522600       0.99071600       0.57672400
C        1.64927600       1.36312600       1.65325000
H       -1.45540300      -2.80495700       0.13381000
H        0.07346200      -2.24728600      -0.53115600
H       -1.39274900      -2.13898700      -1.49602900
H       -0.87563600      -0.58740900       1.11040100
H       -2.35893500      -0.50224400       0.15043300
H       -1.16702600       1.31251200      -0.49619800
H        1.02558600       1.31538800      -1.49388800
H        1.19555500      -0.38179900      -1.02925800
H        2.01284000       1.67708400       2.60084000
