21
Properties=species:S:1:pos:R:3 pbc="F F F"
C       -3.21548300      -1.30456600      -1.25357600
C       -1.69406100      -1.22956400      -1.22650600
C       -1.16668500      -0.29070800      -0.13483600
C        0.36367900      -0.22287100      -0.11075800
C        0.89289200       0.71423600       0.98623500
C        2.39524100       0.74492900       1.04027900
C        3.13154100       1.85488800       0.98270400
H       -3.55667000      -1.97367900      -2.04077100
H       -3.65351700      -0.32470500      -1.43322500
H       -3.60622900      -1.67386900      -0.30740400
H       -1.32721200      -0.89463100      -2.20272700
H       -1.28254000      -2.23306700      -1.07327400
H       -1.53456900      -0.62325600       0.84211800
H       -1.57588900       0.71382600      -0.28820000
H        0.73128800       0.11343500      -1.08570500
H        0.77431500      -1.22746600       0.04070900
H        0.50824500       0.37332600       1.95741800
H        0.50173800       1.72540400       0.83587300
H        2.89140900      -0.22174700       1.13746600
H        2.67412200       2.83239300       0.88221300
H        4.21276900       1.81597400       1.03426400
