21
Properties=species:S:1:pos:R:3 pbc="F F F"
C       -1.52785100       0.52492100       2.23073700
C       -1.58692900       0.07069600       0.97776200
C       -1.08623900       0.82986100      -0.22809500
C        0.44207800       1.03022500      -0.27078500
C        1.28721300      -0.20366000      -0.66750000
C        1.15728300      -1.36048700       0.32927100
C        0.99513200      -0.67234100      -2.09906900
H       -1.91321100      -0.05805300       3.05815600
H       -1.08893400       1.48796700       2.46490500
H       -2.04074500      -0.90337800       0.79198500
H       -1.55033400       1.82367100      -0.23713400
H       -1.42069800       0.32895700      -1.14117700
H        0.77839800       1.38978600       0.70741600
H        0.65950200       1.83245100      -0.98558900
H        2.33839300       0.13088500      -0.64369000
H        0.15606100      -1.78464600       0.31500000
H        1.36669100      -1.02623700       1.34286200
H        1.85846800      -2.15588500       0.08321700
H       -0.01888900      -1.05489800      -2.19479200
H        1.67688200      -1.47011200      -2.38652600
H        1.11428800       0.14420300      -2.80855600
