19
Properties=species:S:1:pos:R:3 pbc="F F F"
C       -1.17927200       2.31774500      -1.67628700
C       -1.22953300       2.15719200      -0.34551500
C       -0.65353700       1.04842900       0.41898300
C        0.01236700      -0.00091400      -0.09795000
C        0.58831700      -1.12803900       0.73242200
C       -0.06742800      -2.46972500       0.36036600
C        2.11582100      -1.20627600       0.56421700
H       -1.63833700       3.17555500      -2.15115200
H       -0.68213800       1.60219800      -2.32060200
H       -1.74397500       2.91278700       0.24831700
H       -0.79081300       1.09929400       1.49955900
H        0.15779500      -0.06968500      -1.17642700
H        0.37162600      -0.92476900       1.79322800
H        0.10804000      -2.71314800      -0.68558400
H       -1.14239900      -2.43363700       0.52142600
H        0.33969900      -3.27670600       0.96650000
H        2.38480100      -1.39277400      -0.47348800
H        2.52658200      -2.01299500       1.16819900
H        2.58871300      -0.27658200       0.87259700
