16
Properties=species:S:1:pos:R:3 pbc="F F F"
N       -0.15331500       0.40982800      -2.15033800
C       -0.91622400       0.93736000      -1.01824700
C       -0.32717000       0.54330000       0.33311700
C        1.16549500       0.41455000       0.52098100
C        0.27288200      -0.80102700       0.59217800
N        0.00815300      -1.46101000       1.86492300
H       -0.55364800       0.73147400      -3.02750100
H       -0.15810100      -0.60696100      -2.14885400
H       -1.98181400       0.61757200      -1.05444400
H       -0.93182900       2.03583500      -1.09811800
H       -0.86262700       0.98487600       1.17635400
H        1.59036000       0.79881200       1.44315400
H        1.78594500       0.54198700      -0.35962100
H        0.32938200      -1.50406900      -0.24428400
H       -0.17442300      -0.77617800       2.59371300
H        0.80299000      -2.03016200       2.14932600
