19
Properties=species:S:1:pos:R:3 pbc="F F F"
C       -0.53929100      -2.07223200      -1.38309900
C       -0.81745600      -0.95338000      -0.71246600
C        0.17289900      -0.04919300      -0.00807400
C        1.62384200      -0.53046600      -0.11775400
C       -0.01685400       1.45734900      -0.37996300
C       -0.41655300       1.77264200       1.06546900
C       -0.25964900       0.29839700       1.45342300
H       -1.32727300      -2.64797600      -1.85370100
H        0.47144800      -2.44816700      -1.48470700
H       -1.85737000      -0.62817800      -0.64790900
H        1.94727000      -0.57064000      -1.15641200
H        1.74091200      -1.52413000       0.31130100
H        2.29122400       0.14429500       0.41470500
H       -0.80154600       1.64521900      -1.11676000
H        0.89477300       1.95374100      -0.72072200
H       -1.42960600       2.16622800       1.18037700
H        0.26557400       2.45118400       1.58390300
H       -1.18470700      -0.18370700       1.77832100
H        0.50767300       0.10343400       2.20639000
