16
Properties=species:S:1:pos:R:3 pbc="F F F"
N       -2.52920100       1.15127500      -0.19109800
C       -1.06795700       1.14128400      -0.07824200
C       -0.50534800      -0.24983100      -0.39155300
C        1.01511100      -0.28553100      -0.33717500
C        1.75699500      -1.53415500      -0.00288200
N        1.64467700      -0.45175100       0.97604300
H       -2.89989900       2.06855900       0.04294800
H       -2.94070400       0.46684500       0.43847100
H       -0.72762400       1.45545900       0.92965000
H       -0.65617400       1.87723500      -0.78531600
H       -0.84557400      -0.56234400      -1.38588600
H       -0.91193100      -0.97688000       0.31848700
H        1.51842100       0.41402500      -1.01901400
H        2.73833300      -1.70411100      -0.45101300
H        1.20615600      -2.44265000       0.24457800
H        2.51786200       0.07659600       1.03159100
