11
Properties=species:S:1:pos:R:3 pbc="F F F"
C       -1.63429600       0.21631800      -0.28301500
C       -0.13103700       0.25827800      -0.33789700
C        0.54324100       0.96550800      -1.26320400
C        0.56623600      -0.50889500       0.66588000
C        1.12159500      -1.16295600       1.52144700
H       -2.07206500       0.82055900      -1.07381800
H       -1.99656800       0.58656100       0.67625400
H       -1.99655800      -0.80653000      -0.38816300
H        0.01568900       1.53977800      -2.01461000
H        1.62512900       0.97962100      -1.28165600
H        1.62993300      -1.72951100       2.26272600
