16
Properties=species:S:1:pos:R:3 pbc="F F F"
C        0.51884200      -1.76905500       1.93327700
C        0.04529500      -0.59016900       1.09315900
C        0.31790600      -0.79135100      -0.40138700
C       -0.01190200       0.41989500      -1.26686700
C       -1.11385700       1.36482600      -0.98630200
O        0.24059000       1.71718800      -0.72720200
H        0.29780500      -1.60696400       2.98605000
H        1.59274300      -1.91390100       1.83425600
H        0.02996700      -2.69219500       1.62684300
H        0.54161000       0.32606500       1.42475200
H       -1.02736200      -0.43760100       1.25519200
H       -0.24483300      -1.65844000      -0.77144100
H        1.37588800      -1.04208300      -0.54353500
H        0.30219400       0.31731600      -2.32101300
H       -1.74359400       1.24789300      -0.09568800
H       -1.58684700       1.91753400      -1.80908100
