19
Properties=species:S:1:pos:R:3 pbc="F F F"
C       -2.36170900       0.32667400      -1.37122000
C       -1.41986200       0.87362900      -0.60164500
C       -0.95223300       0.29561600       0.70461100
C        0.58016400       0.03852500       0.78092600
C        1.02027000      -0.94480300      -0.28337900
C        1.60009300      -2.11756000      -0.02928000
C        1.38338400       1.34563400       0.68302800
H       -2.67343500       0.79551300      -2.29660500
H       -2.84582600      -0.60382600      -1.09784900
H       -0.95737800       1.81145300      -0.91105200
H       -1.48278000      -0.64025600       0.90386400
H       -1.21863200       0.98872500       1.51443300
H        0.78153700      -0.40672400       1.76845600
H        0.83786000      -0.64657500      -1.31586100
H        1.79561600      -2.44532500       0.98570400
H        1.89667300      -2.78398800      -0.83031000
H        1.28121500       1.80247100      -0.29913500
H        2.44113600       1.15754000       0.85377700
H        1.04337100       2.06470200       1.42632700
