12
Properties=species:S:1:pos:R:3 pbc="F F F"
O       -1.37811100      -0.04562000       0.52308700
C        0.05033400      -0.13384700       0.40986800
C        0.43942900      -1.41563000      -0.21204900
C        0.75806400      -2.47189800      -0.70500400
C        0.51899200       1.09737600      -0.39310800
O       -0.02794900       2.25766000       0.19542900
H       -1.74080600      -0.90419700       0.78316500
H        0.49093900      -0.09752300       1.43456000
H        1.03574100      -3.39641700      -1.15029500
H        0.19581500       1.00667300      -1.45024900
H        1.61644000       1.17882900      -0.38429900
H       -0.95056900       2.06030000       0.42074600
