15
Properties=species:S:1:pos:R:3 pbc="F F F"
C       -0.39923400       0.84411300       2.10782900
C       -0.87897300       1.07120700       0.67737700
C       -0.39938200      -0.01073900      -0.30305800
O       -1.18444200      -0.72039700      -0.93854400
N        0.96867200      -0.12760100      -0.45059100
C        1.56281300      -1.10724700      -1.33660900
H       -0.77142100       1.62588700       2.76665800
H        0.68831200       0.84681400       2.17060400
H       -0.75284900      -0.11091900       2.48923800
H       -0.53398500       2.05109100       0.32696400
H       -1.96972400       1.09425700       0.65558700
H        1.58607900       0.46549700       0.09474100
H        0.75429000      -1.64668900      -1.82908600
H        2.18912200      -1.82327800      -0.78618600
H        2.19366600      -0.63028700      -2.09926300
