19
Properties=species:S:1:pos:R:3 pbc="F F F"
C        1.09093600       0.80259700       2.11974000
C        1.00356500       0.38913400       0.67553300
C        2.10631800       0.08963600      -0.03078400
C       -0.37955100       0.33399000       0.10343600
C       -0.64026200       0.65421600      -1.34773600
C       -0.78115600      -0.75386300      -0.86940800
C       -2.14638300      -1.39774700      -0.76717600
H        2.11949500       0.81130200       2.47083900
H        0.51782700       0.12377200       2.75272400
H        0.67107400       1.79928700       2.26325100
H        3.08747200       0.13768600       0.42304600
H        2.05012900      -0.20651900      -1.07060800
H       -1.16094300       0.65177100       0.79481100
H        0.21680200       0.90104700      -1.96684300
H       -1.54380300       1.21000200      -1.58004700
H        0.01972200      -1.43509700      -1.16143600
H       -2.90013400      -0.67447300      -0.46332100
H       -2.14555800      -2.20848000      -0.03906900
H       -2.45288400      -1.81808000      -1.72498700
