17
Properties=species:S:1:pos:R:3 pbc="F F F"
N       -0.34114500       0.85443000       2.31354000
C       -0.61860400       0.97441600       0.88166000
C       -0.00773900      -0.19643500       0.08162000
C       -0.55706600      -0.20253900      -1.36254500
O       -0.10634600      -1.33281000      -2.09079300
C        1.52567300      -0.15832900       0.07791800
H       -0.74810800       1.63460800       2.82264700
H        0.66051100       0.84226200       2.48721500
H       -0.24950900       1.93613900       0.46484400
H       -1.71045800       0.97863000       0.73976500
H       -0.32362300      -1.13570900       0.56461400
H       -0.22919300       0.69338400      -1.91099600
H       -1.66897000      -0.18382900      -1.33990300
H       -0.28535100      -2.13681700      -1.58614400
H        1.89024000       0.78999000      -0.31334000
H        1.92178000      -0.95312800      -0.54998100
H        1.92787600      -0.28673800       1.08092300
