15
Properties=species:S:1:pos:R:3 pbc="F F F"
C       -2.12442900      -1.59293500       0.35188900
C       -0.63530500      -1.47435300       0.31730000
C        0.04478900      -0.32550100       0.06944100
C       -0.50208900       1.00789100      -0.20931700
C        0.53903900       1.85924600      -0.39799100
C        1.79174000       1.11958400      -0.25060400
C        1.50554500      -0.17831100       0.02736800
H       -2.43448700      -2.61207700       0.56787500
H       -2.56961000      -1.30140300      -0.60085100
H       -2.55858800      -0.94174500       1.11240800
H       -0.06377300      -2.38399900       0.50609400
H       -1.55626700       1.25502200      -0.25346500
H        0.46962700       2.91812500      -0.62222600
H        2.78100800       1.55245300      -0.35034900
H        2.21635500      -0.98010100       0.19200900
