15
Properties=species:S:1:pos:R:3 pbc="F F F"
C       -1.50539200      -0.02703800       1.63053500
C       -1.31397700       0.45976500       0.20934500
O       -0.20671000       1.33110400      -0.04328000
C       -0.19038900       0.03715800      -0.66659400
C        0.92276000      -0.92455600      -0.23759000
N        2.17208400      -0.71309900      -0.98083500
H       -2.04159900       0.71556900       2.21986700
H       -0.55305800      -0.21524300       2.11926800
H       -2.08851000      -0.94808400       1.65186700
H       -2.24420600       0.78482100      -0.28923700
H       -0.35775900       0.08675200      -1.75757700
H        1.13056800      -0.80809800       0.83256300
H        0.59234700      -1.96411100      -0.39155800
H        2.52080400       0.22695900      -0.80579500
H        2.01249600      -0.80768300      -1.98148900
