17
Properties=species:S:1:pos:R:3 pbc="F F F"
C       -1.01359200       1.76663000      -0.90323200
C       -1.34921200       1.04587300       0.40821200
N       -0.83539300      -0.33368200       0.49402800
C        0.61668800      -0.44278000       0.59393600
C        1.26164500      -1.75836000       0.31289300
C        1.48113100      -0.60414300      -0.63055100
H       -1.44238800       2.76655300      -0.91277000
H       -1.40910500       1.22315400      -1.75934500
H        0.06178500       1.86019100      -1.03482800
H       -2.44206000       1.01136300       0.53429700
H       -0.95186500       1.61880800       1.25737600
H       -1.17376100      -0.88639300      -0.29667400
H        1.02872400       0.14889500       1.41675500
H        0.63586100      -2.57253600      -0.03785500
H        2.09846500      -2.07095200       0.92927800
H        0.99698500      -0.66026400      -1.59966300
H        2.46514600      -0.14637100      -0.64231500
