16
Properties=species:S:1:pos:R:3 pbc="F F F"
C        2.08252200       0.68087800       0.03549700
C        0.75496500       0.67075200      -0.71564600
C       -0.36615100      -0.04314800       0.04746200
C       -0.87434700       0.63925200       1.30918500
C       -0.52952900      -1.51078200      -0.10490400
O       -1.39123800      -0.60299100      -0.78970000
H        2.85001000       1.18649100      -0.54615900
H        2.42922100      -0.33130200       0.23632900
H        1.99384100       1.19735700       0.98923300
H        0.88660600       0.18333400      -1.68567500
H        0.44908400       1.70175100      -0.92454100
H       -1.71748800       0.09556400       1.72780600
H       -1.20009600       1.65661700       1.09631200
H       -0.09438300       0.69524600       2.06853500
H       -1.01717300      -2.10111500       0.68157900
H        0.14552200      -2.08172500      -0.75538200
