17
Properties=species:S:1:pos:R:3 pbc="F F F"
C        0.77765500      -2.45476100      -0.45465400
C        0.29575600      -1.58769000       0.70902300
C        0.02709900      -0.15841000       0.32367200
C        0.60586300       0.95260500       0.84318500
C        0.04415700       2.13650400       0.19811600
C       -0.87761500       1.75441500      -0.71260800
C       -0.97698600       0.25733200      -0.72117900
H        0.95448900      -3.47642300      -0.12444100
H        1.70639000      -2.07008100      -0.86994100
H        0.03997700      -2.48412900      -1.25413000
H        1.03993300      -1.61135500       1.51162100
H       -0.61873200      -2.03501200       1.12333400
H        1.36765800       0.97104700       1.61520900
H        0.33269400       3.15745400       0.42420000
H       -1.46414900       2.40566100      -1.35099200
H       -0.74418900      -0.16496400      -1.70731800
H       -1.98964100      -0.09217100      -0.48086900
