23
Properties=species:S:1:pos:R:3 pbc="F F F"
C       -2.76723800      -1.19047700       1.63231800
C       -1.24661000      -1.17065200       1.54151000
C       -0.71935400      -0.02347800       0.67113800
C        0.81137300      -0.01274700       0.58699500
C        1.38290000       1.18980100      -0.17693800
C        1.03597500       1.23875800      -1.67220200
C        1.63713400       0.09694500      -2.48287300
H       -3.10755200      -2.00736600       2.26540200
H       -3.21688400      -1.31849300       0.64961600
H       -3.14622100      -0.26072100       2.05211300
H       -0.89342400      -2.12634500       1.13940000
H       -0.82292800      -1.08806600       2.54839200
H       -1.07072600       0.93178500       1.07637400
H       -1.14655800      -0.10508800      -0.33359300
H        1.15832500      -0.94445700       0.12804400
H        1.22380000      -0.00438000       1.60253000
H        2.47295700       1.18969500      -0.06534500
H        1.02734500       2.11290300       0.29486000
H        1.39478500       2.19079900      -2.07905200
H       -0.05129400       1.24395000      -1.80041000
H        2.72161100       0.08229100      -2.39294500
H        1.38943700       0.20227700      -3.53725400
H        1.26225300      -0.86768000      -2.14782400
