19
Properties=species:S:1:pos:R:3 pbc="F F F"
C       -2.59912000      -0.86320700       0.74858300
C       -1.62560500       0.02388500       0.53884600
C       -1.04140500       0.33888100      -0.81038800
C        0.49650800       0.27820100      -0.86801600
C        1.30223600       1.19983100       0.07139800
C        2.12467200      -0.00762200       0.53839600
C        1.19911200      -0.94596600      -0.24548900
H       -2.99579100      -1.03841800       1.74110600
H       -3.02650600      -1.43877900      -0.06453700
H       -1.22187700       0.58189200       1.38430200
H       -1.35552600       1.35108000      -1.10370700
H       -1.45934600      -0.34234000      -1.55951900
H        0.80358500       0.42305400      -1.91455000
H        0.70561200       1.65463700       0.86583600
H        1.86714300       1.99509000      -0.42271000
H        2.15264800      -0.16774700       1.61930200
H        3.15430900      -0.00128100       0.17249100
H        0.54514300      -1.54226300       0.39427600
H        1.69221700      -1.61894700      -0.95226700
