16
Properties=species:S:1:pos:R:3 pbc="F F F"
C       -1.07871800      -1.79098000       0.42109800
C       -1.43834800      -0.57791400      -0.42675600
C       -0.76904500       0.72314900       0.05359400
C        0.74713400       0.68773300      -0.09726000
N        1.37369100       0.94365200      -1.20680200
N        1.46376800       0.31580400       1.02830100
H       -1.58809800      -2.67913700       0.05362100
H       -1.36956100      -1.64391500       1.45975200
H       -0.00865400      -1.98257100       0.39650800
H       -2.52473900      -0.43737600      -0.41972600
H       -1.15456200      -0.76198800      -1.46749400
H       -1.04041300       0.91012700       1.09808200
H       -1.16426600       1.55754200      -0.53358600
H        0.73412300       1.17217200      -1.97016800
H        1.01976400       0.35987200       1.93436700
H        2.46805200       0.43714700       0.99409200
