17
Properties=species:S:1:pos:R:3 pbc="F F F"
C       -2.20993400       1.61672400       2.16728500
C       -1.28787100       1.95751900       0.99753700
C       -0.80001600       0.73825100       0.26462400
C        0.49978200       0.47965600       0.02916200
C        0.97601200      -0.67117300      -0.67866600
C        1.44645000      -1.62326400      -1.26846600
C        1.97039300      -2.77922600      -1.98174700
H       -2.56011900       2.52277300       2.65760200
H       -1.69411300       1.01055900       2.90856300
H       -3.08026500       1.05928300       1.82710900
H       -0.43493000       2.54405700       1.35468600
H       -1.83607100       2.60357400       0.29715200
H       -1.55969900       0.04312400      -0.08960900
H        1.26681300       1.17079800       0.38664700
H        3.03737800      -2.90668400      -1.78893500
H        1.83378600      -2.66574800      -3.05943800
H        1.45832900      -3.69266100      -1.67215300
