17
Properties=species:S:1:pos:R:3 pbc="F F F"
C       -3.42928400       0.65639000       0.89840700
C       -1.93823500       0.61654900       0.91309500
C       -1.18449600       0.01842000      -0.03483000
C        0.26458500      -0.01057500      -0.00481400
C        1.01869600      -0.61408100      -0.95897400
C        2.47409800      -0.67599300      -0.98166200
C        3.31041000      -0.15143900      -0.06928400
H       -3.84129500       0.18603600       1.79372500
H       -3.83541500       0.14619100       0.02807800
H       -3.79197500       1.68647000       0.89236400
H       -1.44551600       1.10914400       1.75195400
H       -1.67509400      -0.47470800      -0.87451900
H        0.75275900       0.48334100       0.83558600
H        0.50749500      -1.10117200      -1.78963200
H        2.90495100      -1.20516300      -1.83179300
H        2.94626500       0.38597800       0.79855600
H        4.38317900      -0.25174800      -0.17594400
