21
Properties=species:S:1:pos:R:3 pbc="F F F"
C       -2.69170000      -1.72305100      -1.00031400
C       -1.19198100      -1.47741800      -1.10898800
C       -0.71568100      -0.33260900      -0.20767800
C        0.80042300      -0.09662200      -0.31878700
C        1.29341700       1.03473000       0.55974800
C        1.75246600       2.18003100       0.03607400
C        1.25863400       0.80632900       2.04609300
H       -3.00115400      -2.52934800      -1.66196700
H       -3.25495500      -0.83214100      -1.27088700
H       -2.97128700      -1.99638300       0.01532300
H       -0.93286300      -1.25384300      -2.14943500
H       -0.65199300      -2.39459700      -0.84995900
H       -0.98020800      -0.55257500       0.83199700
H       -1.24815400       0.58626800      -0.47274700
H        1.05660800       0.11217300      -1.36223200
H        1.32463800      -1.02133300      -0.04554000
H        1.77859200       2.33669600      -1.03519800
H        2.10972700       2.98349300       0.66826000
H        0.23877000       0.63267500       2.39152800
H        1.66031100       1.65804700       2.58893800
H        1.83850300      -0.07747000       2.31503400
