15
Properties=species:S:1:pos:R:3 pbc="F F F"
C       -1.45950100       1.08640100       0.42046100
C        0.07087700       1.02254200       0.39772100
C        0.59189700      -0.37421400       0.12748200
N       -0.21322900      -1.37955500      -0.00161700
O        0.44553200      -2.57594900      -0.22860600
C        0.65816000       2.02605500      -0.60980400
H       -1.86421800       0.41372400       1.17347800
H       -1.87666200       0.80153800      -0.54306800
H       -1.79765100       2.09525300       0.64888500
H        0.43706700       1.31937300       1.39851000
H        1.68381300      -0.50475700       0.05238300
H       -0.24052200      -3.26485200      -0.31506100
H        0.31273500       1.81447700      -1.61934600
H        1.74555700       1.98308600      -0.61107100
H        0.35962800       3.04192200      -0.35969900
