21
Properties=species:S:1:pos:R:3 pbc="F F F"
C       -1.66219800      -1.10922200       1.57821300
C       -1.85394700      -0.81988900       0.09545400
C       -1.21964300       0.50627400      -0.36475500
C        0.29913500       0.53675400      -0.24167200
C        1.05456900      -0.13173500      -1.13344600
C        2.54918400      -0.21966700      -1.18213900
C        0.84485100       1.35389800       0.89811900
H       -2.15813000      -2.03723000       1.85629100
H       -2.07757900      -0.31112600       2.19073800
H       -0.60753400      -1.20609200       1.82518600
H       -2.92570900      -0.79219100      -0.13197100
H       -1.43453200      -1.64255200      -0.49319300
H       -1.65114500       1.33014300       0.21238400
H       -1.50575100       0.67383700      -1.40975300
H        0.53850600      -0.68091200      -1.92156500
H        3.02934000       0.31241300      -0.36540300
H        2.92901400       0.19162100      -2.11972000
H        2.87420200      -1.26108700      -1.14291200
H        0.41945800       1.02445100       1.84683600
H        0.57121300       2.40414700       0.77984100
H        1.92693400       1.29611100       0.97459900
