15
Properties=species:S:1:pos:R:3 pbc="F F F"
C       -1.06952200       2.10030800       0.27346900
N       -1.35020500       0.67249700       0.41447900
C       -0.92447000      -0.14893800      -0.72807100
C        0.60119800      -0.33570100      -0.77989900
C        1.16010400      -0.99228600       0.47845300
O        2.02096000      -1.83635700       0.46851800
H       -1.48542200       2.63550300       1.12885900
H       -1.49833100       2.53531300      -0.64651400
H        0.00887200       2.27968400       0.25284200
H       -2.35097600       0.53753400       0.57291400
H       -1.26593000       0.28166600      -1.69255400
H       -1.40916500      -1.12988500      -0.63368400
H        1.08276900       0.64423100      -0.88731700
H        0.88208900      -0.92114600      -1.65908100
H        0.71598900      -0.61981900       1.45132300
