16
Properties=species:S:1:pos:R:3 pbc="F F F"
C       -2.28954900       0.03459100       0.71580800
C       -0.76824400       0.09295900       0.76662200
N       -0.18269100      -0.55028000      -0.41748600
C        1.28923100      -0.57908700      -0.43998400
C        1.95046700       0.79079600      -0.64443300
H       -2.72359000       0.48551900       1.60554600
H       -2.63948400      -0.99351300       0.65294900
H       -2.67319900       0.56875600      -0.15199100
H       -0.40473500      -0.42669900       1.66591400
H       -0.44602500       1.15124200       0.87240000
H       -0.53647300      -0.10339500      -1.26660200
H        1.60605300      -1.25440800      -1.24993600
H        1.64433600      -1.02441800       0.49954600
H        1.62360800       1.24582000      -1.57762500
H        3.03337900       0.69214600      -0.68003800
H        1.70354100       1.47535500       0.16415400
