16
Properties=species:S:1:pos:R:3 pbc="F F F"
C        1.31891100      -1.17612600       0.36515300
C        0.93987400       0.28418200       0.64268300
C       -0.60051800       0.50340600       0.68032900
C       -1.28772800       0.16821700      -0.61301500
C       -2.23557300      -0.76039100      -0.74829600
O        1.54452200       1.14598800      -0.32213100
H        2.40002700      -1.29551600       0.35493000
H        0.93435100      -1.50444700      -0.59898600
H        0.91174300      -1.83563200       1.12871800
H        1.35117900       0.58564700       1.62500300
H       -1.02904400      -0.08813800       1.49521600
H       -0.78391500       1.55803700       0.91758500
H       -0.97944700       0.74721000      -1.48483000
H       -2.57210400      -1.35139100       0.09548000
H       -2.70330100      -0.95091000      -1.70638200
H        1.30453400       0.85150700      -1.21081900
