16
Properties=species:S:1:pos:R:3 pbc="F F F"
N       -1.10043900      -2.13079800      -0.09320200
C       -1.22927000      -0.82648800       0.56505100
C       -0.46295500       0.24688200      -0.19624800
C       -0.10149200       1.53767500       0.49657500
C        0.97466100       0.56147400       0.14947800
N        1.94143500       0.90961900      -0.88311600
H       -1.59751800      -2.84739600       0.42907000
H       -0.12298200      -2.40064500      -0.16613200
H       -0.87178700      -0.85551200       1.61692400
H       -2.29905300      -0.56675000       0.61251600
H       -0.73630900       0.33895600      -1.24787100
H       -0.37900500       1.64812300       1.54078600
H       -0.16571400       2.45363600      -0.08232800
H        1.41778200       0.00237500       0.98029400
H        1.54386200       1.57509500      -1.54028400
H        2.23809200       0.08311200      -1.39788900
