19
Properties=species:S:1:pos:R:3 pbc="F F F"
C       -0.14041000       1.08636000       1.99769900
C       -0.60233300      -0.23685500       1.36878700
N       -0.04025600      -0.53725400       0.03325100
C       -0.48127600       0.40971500      -1.01194600
C       -0.30255400      -0.14621300      -2.42241500
C        1.40765800      -0.75829300       0.05375700
H       -0.60505900       1.22543400       2.97176500
H       -0.40962800       1.93617600       1.37412100
H        0.93842900       1.10163100       2.13623600
H       -1.70009100      -0.23286400       1.28585800
H       -0.33841900      -1.06578000       2.04314600
H        0.04771200       1.38378400      -0.93511900
H       -1.54666800       0.62280600      -0.84350600
H        0.74743600      -0.29116000      -2.66818300
H       -0.72126900       0.54090200      -3.15502300
H       -0.80679800      -1.10395400      -2.53313400
H        1.65996200      -1.45769500       0.85476600
H        1.99148900       0.16709800       0.21459700
H        1.73818400      -1.19388600      -0.89357600
