15
Properties=species:S:1:pos:R:3 pbc="F F F"
C        0.36712300       2.47203000      -0.31775400
N       -0.55621700       1.33811500      -0.27482600
C       -0.00307000       0.14345400       0.35687400
C        1.00426900      -0.73384100      -0.38775400
C       -0.40609300      -1.20550100      -0.13422600
O       -0.62552000      -2.25369300       0.78444600
H       -0.12713600       3.32673700      -0.78512800
H        1.29106900       2.25967800      -0.88343400
H        0.65756400       2.75645500       0.69686300
H       -0.88862900       1.11916700      -1.21648400
H        0.17240800       0.26120700       1.43078100
H        1.80590600      -1.18431300       0.18936000
H        1.27771400      -0.44853300      -1.39842600
H       -1.08778000      -1.28082700      -0.98631700
H        0.02318400      -2.20368800       1.49816300
