10
Properties=species:S:1:pos:R:3 pbc="F F F"
C       -0.78073100       1.22480700       0.46326600
N       -1.44358100      -0.07192400       0.41510100
C        0.00504100      -0.03285400       0.66142300
C        0.90568900      -0.49760000      -0.37998600
C        1.66922200      -0.89636400      -1.22921500
H       -1.02084900       1.84267900       1.33017500
H       -0.66879200       1.77021200      -0.47498000
H       -1.63629300      -0.34518100      -0.55139000
H        0.30324200      -0.30743700       1.68007200
H        2.33243300      -1.24474300      -1.98250900
