21
Properties=species:S:1:pos:R:3 pbc="F F F"
C        0.04754700      -2.37596300       1.21810000
C       -0.97190300      -1.29055900       0.88704700
C       -0.43892400       0.11584400       1.13364100
C       -1.03826600       1.29620800       0.42350400
C        0.36948500       0.87230700       0.11458300
C        0.72561800       0.28416200      -1.24549600
C        1.14758300       1.35130200      -2.25045700
H       -0.37495600      -3.36622800       1.05944000
H        0.36525500      -2.30991800       2.25693800
H        0.93373900      -2.28480100       0.59345500
H       -1.87005600      -1.44466600       1.49799500
H       -1.29105300      -1.39235600      -0.15479700
H       -0.15088800       0.29357900       2.17244400
H       -1.19179100       2.21305000       0.98511000
H       -1.79693100       1.09789700      -0.32717300
H        1.14989900       1.51461900       0.52876900
H       -0.12811700      -0.27134700      -1.64528700
H        1.54029100      -0.44146300      -1.12936200
H        0.34957000       2.07229500      -2.41454500
H        1.39719800       0.90233700      -3.20982300
H        2.02099800       1.89719900      -1.89869500
