19
Properties=species:S:1:pos:R:3 pbc="F F F"
C        2.02465500      -0.99962200       0.31078400
C        0.84434100      -1.90686500       0.49517800
C       -0.45465800      -1.65720100       0.27699400
C       -1.17102500      -0.42549400      -0.22011300
C       -0.34626400       0.79779000      -0.58968700
C       -1.03437400       2.12565400      -0.70533900
C       -0.08120600       1.87268900       0.42034800
H        2.87612700      -1.37408500       0.87538600
H        1.82385500       0.01629000       0.64112600
H        2.32962500      -0.95321700      -0.73689400
H        1.09290700      -2.90973200       0.84402600
H       -1.14215000      -2.48127100       0.47905700
H       -1.91618500      -0.13707500       0.53451600
H       -1.76640300      -0.72884300      -1.09603000
H        0.44475700       0.61540400      -1.31783800
H       -2.09236400       2.17840500      -0.46820700
H       -0.71892700       2.80123800      -1.49405700
H       -0.49833300       1.75085400       1.41467700
H        0.87828200       2.38032600       0.39525300
