14
Properties=species:S:1:pos:R:3 pbc="F F F"
C       -0.56749000      -1.72896200       0.30309900
C        0.88857400      -1.38060000       0.23188300
C        1.42955200      -0.17520900       0.00938500
C        0.75895100       1.15536800      -0.23133900
C       -0.70211700       1.21024300      -0.19695400
C       -1.89638400       1.39875900      -0.19269500
H       -0.69506600      -2.79449700       0.47951500
H       -1.08553300      -1.47783900      -0.62172200
H       -1.06808600      -1.19407600       1.10958900
H        1.58064000      -2.20998100       0.37904600
H        2.51811400      -0.10940200      -0.01048000
H        1.09359400       1.54273100      -1.20749000
H        1.14460900       1.87728100       0.50656400
H       -2.95478500       1.48818700      -0.17530000
