17
Properties=species:S:1:pos:R:3 pbc="F F F"
C       -1.37769200      -1.91388500       0.35263300
O       -1.58440900      -0.62006400      -0.17703100
C       -1.09499200       0.44697100       0.64055300
C        0.43617900       0.55527000       0.63883200
C        1.01076000       0.74991100      -0.76778500
N        2.47305500       0.83550200      -0.72817100
H       -1.89215400      -2.63046000      -0.29579800
H       -1.78555100      -2.00076700       1.37649900
H       -0.30593900      -2.18013400       0.38986600
H       -1.46653800       0.32153900       1.67934700
H       -1.54041300       1.37312800       0.24132500
H        0.87896500      -0.33745100       1.09205700
H        0.72952900       1.39771600       1.27697500
H        0.55531800       1.65285200      -1.22812800
H        0.72335600      -0.09814800      -1.40288400
H        2.77205700       1.60868900      -0.13927600
H        2.84973200       0.97544000      -1.66193500
