14
Properties=species:S:1:pos:R:3 pbc="F F F"
C       -1.90759000      -0.70182900      -0.70638700
O       -0.51440800      -0.66501800      -0.45915900
C       -0.00703800       0.39961300       0.21497300
C       -0.74752200       1.44672000       0.66577100
C        1.44768100       0.32942500       0.42666100
C        2.22103100      -0.68083000       0.00919100
H       -2.12302500      -1.62589800      -1.25102100
H       -2.22657500       0.15789100      -1.31511700
H       -2.47769900      -0.69749200       0.23497200
H       -1.81487000       1.51516500       0.51845300
H       -0.26117800       2.25393400       1.19456100
H        1.89303600       1.16677900       0.96151000
H        1.79741100      -1.52430300      -0.52323900
H        3.28879400      -0.68453100       0.19189800
