19
Properties=species:S:1:pos:R:3 pbc="F F F"
C       -2.26523800       0.09706500       0.28643800
C       -0.78974400      -0.16004900       0.15643200
C       -0.15455800       0.05322700      -1.02154100
C        1.26762800      -0.13809600      -1.27293900
C        1.85589700       0.12897600      -2.45057900
C       -0.09237500      -0.63583600       1.41661400
C        0.37173200       0.52411400       2.29936200
H       -2.68933800       0.48707900      -0.63613000
H       -2.46563800       0.81326100       1.08555500
H       -2.79952100      -0.81909300       0.54729700
H       -0.74521300       0.40635100      -1.86685200
H        1.87903100      -0.51438300      -0.45339600
H        1.28722100       0.51073500      -3.29032500
H        2.91770000      -0.02446200      -2.59479100
H        0.76849100      -1.26273000       1.16545700
H       -0.78068900      -1.26630600       1.99050700
H        1.08167900       1.15510700       1.76950500
H        0.85536200       0.15225500       3.20054500
H       -0.46913900       1.14576900       2.59990200
