16
Properties=species:S:1:pos:R:3 pbc="F F F"
C       -0.70585800       1.16541700      -2.25270200
N       -1.33399300       0.48425300      -1.14101700
C       -0.60550000      -0.04589200      -0.08911800
N        0.66069300       0.18632300       0.06193200
C        1.39186100      -0.34627000       1.21317400
C        0.64719100      -1.30903000       2.14076200
H       -1.28691300       2.04705100      -2.55241300
H       -0.60936700       0.51681800      -3.13862000
H        0.29005100       1.48371700      -1.94854000
H       -2.27395000       0.13243400      -1.28666100
H       -1.23265400      -0.64373300       0.60835600
H        1.76382900       0.50663100       1.80943800
H        2.30002500      -0.84950500       0.83643600
H       -0.20361300      -0.83180500       2.62462200
H        1.31720600      -1.65776700       2.92457300
H        0.28232500      -2.18322200       1.60370300
