15
Properties=species:S:1:pos:R:3 pbc="F F F"
C       -1.17725800      -1.05791600      -1.86369900
O       -1.29312200       0.09960700      -1.06448200
C       -0.81960800      -0.05060900       0.27878300
C        0.70428300       0.02478200       0.36743200
C        1.39425000       0.07467300       1.68912900
N        1.29062800       1.27475100       0.86370600
H       -1.62191500      -0.84169100      -2.84005900
H       -1.70722700      -1.91656300      -1.41060200
H       -0.12304000      -1.35590900      -2.01702600
H       -1.18616500      -1.01628300       0.69055900
H       -1.27283200       0.75690600       0.87148400
H        1.24880900      -0.46738800      -0.44810600
H        2.37981900      -0.38535700       1.78906300
H        0.80517800       0.08759200       2.60808500
H        2.17795900       1.47300300       0.39664700
