16
Properties=species:S:1:pos:R:3 pbc="F F F"
C        1.45539100      -1.24927800       0.73049800
C        0.80485900       0.12611200       0.49946600
C       -0.73261800       0.03922500       0.51908000
C       -1.50544900      -0.41611000      -0.68303800
C       -1.55976400       1.01655800      -0.25669400
O        1.27944900       0.69598000      -0.71979500
H        2.53944900      -1.16384300       0.73566400
H        1.17788800      -1.95056000      -0.05499000
H        1.14344200      -1.67380700       1.68272400
H        1.12846600       0.81401200       1.30535200
H       -1.13884600      -0.27367800       1.48293400
H       -2.38494900      -1.03099500      -0.52142700
H       -0.95729500      -0.65666800      -1.59006400
H       -2.47945100       1.38022800       0.19054800
H       -1.03022300       1.74090900      -0.86651500
H        0.99141700       0.14752300      -1.46173900
