17
Properties=species:S:1:pos:R:3 pbc="F F F"
C       -2.75439100      -0.05076700      -0.51025800
C       -1.26165500      -0.07417500      -0.62070500
C       -0.43403900       0.39267400       0.32199100
C        1.09157100       0.39631400       0.27237800
N        1.65761900      -0.22141500       1.49674700
C        1.68219500      -0.28378400      -0.96375500
H       -3.19594700       0.52478700      -1.32563800
H       -3.07929200       0.38686900       0.43081800
H       -3.16503300      -1.05964600      -0.57784800
H       -0.85832900      -0.50268100      -1.53777900
H       -0.86475600       0.81299000       1.23273800
H        1.42011600       1.45610600       0.27079900
H        1.41534700      -1.20906500       1.53025700
H        1.27104000       0.22550800       2.32500000
H        1.38076400      -1.32806900      -1.02208400
H        2.76838300      -0.25231700      -0.92478400
H        1.36229800       0.21385200      -1.87661300
