14
Properties=species:S:1:pos:R:3 pbc="F F F"
C       -2.46593900      -0.27194400      -0.31917500
N       -1.08512800      -0.08418800       0.10226100
N       -0.36740500       0.83934200      -0.60210800
C        0.94386600       0.80580700      -0.57998300
C        1.84573900      -0.14086700       0.09037800
C        1.64775400      -0.81405200       1.23731000
H       -3.01189200      -0.82755900       0.44798800
H       -2.55495000      -0.83151100      -1.26551200
H       -2.94739000       0.69704900      -0.45642500
H       -0.58449100      -0.95715500       0.31421400
H        1.43951300       1.56952700      -1.19144300
H        2.81404600      -0.25954300      -0.40081600
H        0.76233700      -0.68937400       1.84773100
H        2.42204400      -1.46117800       1.63201400
