12
Properties=species:S:1:pos:R:3 pbc="F F F"
C        0.35968200       1.27876300       0.11475400
O        1.19898000       0.32253200      -0.46852500
C        1.02924700      -0.99272500       0.07833500
C       -0.43354200      -1.32193800       0.19451300
C       -1.35330100      -0.34686700       0.06398200
O       -1.02895500       0.96436500      -0.08078400
H        0.54982400       2.25665800      -0.36474200
H        0.55124900       1.37213600       1.21720800
H        1.55451800      -1.06017100       1.06027200
H        1.54660200      -1.68837200      -0.60287000
H       -0.74227400      -2.35625700       0.31180500
H       -2.43263200      -0.52256700       0.06330100
