17
Properties=species:S:1:pos:R:3 pbc="F F F"
C        1.33198700       1.12647700       0.94160600
C        0.78085100      -0.03374700       0.08247700
C       -0.75041700      -0.05285300       0.09299400
C       -1.50610300      -0.63032800      -1.06381300
C       -1.51960900       0.84676500      -0.82500500
N        1.30002600      -1.34247700       0.53459400
H        2.42003500       1.14423100       0.91480000
H        1.02560000       1.02365700       1.98104500
H        0.96968400       2.08611100       0.57953100
H        1.12176800       0.11707600      -0.95818300
H       -1.19034400      -0.21579700       1.07891100
H       -2.41507600      -1.18633400      -0.85661800
H       -0.93669300      -0.99975900      -1.91041600
H       -2.43747200       1.29430500      -0.45714800
H       -0.96078800       1.47478400      -1.51209500
H        0.96589000      -1.54945400       1.47303400
H        2.31695600      -1.32937400       0.55542500
