19
Properties=species:S:1:pos:R:3 pbc="F F F"
C       -1.72618300      -0.08008000       1.62945200
C       -0.21366200       0.03892300       1.46542000
N        0.25574500      -0.31965100       0.10557900
C       -0.12378700       0.68962000      -0.90960700
C        0.08358700       0.20264000      -2.34034400
C        1.69444000      -0.61209900       0.09911100
H       -2.00778400       0.10725000       2.66373100
H       -2.07105300      -1.07678500       1.36299800
H       -2.26231600       0.63447200       1.00808600
H        0.27286000      -0.64450500       2.17576200
H        0.11133300       1.06262600       1.75079300
H        0.43231000       1.64038800      -0.75827700
H       -1.18610500       0.93126000      -0.77065700
H        1.13775500       0.07666200      -2.57909400
H       -0.32884900       0.92178600      -3.04539800
H       -0.41242400      -0.75147700      -2.50506200
H        1.91850400      -1.37978700       0.84461500
H        2.31820700       0.27235200       0.32801200
H        2.00098300      -0.99071500      -0.87875200
