17
Properties=species:S:1:pos:R:3 pbc="F F F"
C        1.25088400       0.12671500       1.21415100
C        0.63254800       0.43332000      -0.15730500
C       -0.90866600       0.40498400      -0.18740200
C       -1.73605700       1.00681200       0.90706800
C       -1.72533700      -0.47628200       0.70527700
C        1.17332500      -0.47968000      -1.18377000
C        1.61520300      -1.21785000      -2.03198200
H        2.33087900       0.24910100       1.17563900
H        1.04228800      -0.89430400       1.52455200
H        0.86272000       0.80065100       1.97496700
H        0.94576400       1.45558400      -0.44467500
H       -1.30582700       0.54080100      -1.19459000
H       -2.63036900       1.55321900       0.62449000
H       -1.23289300       1.40116800       1.78386600
H       -2.61328600      -0.93897000       0.28651100
H       -1.21311400      -1.08177000       1.44530100
H        2.00242900      -1.87359400      -2.77228300
