10
Properties=species:S:1:pos:R:3 pbc="F F F"
C       -1.09595600      -1.40959200       0.16186100
C        0.23289500      -1.32147800       0.13427100
C        1.01920400      -0.04421700      -0.01551100
C        0.19740500       1.16083900      -0.12283900
N       -0.43093400       2.12065700      -0.20766200
H       -1.58644100      -2.36871100       0.27359000
H       -1.72390500      -0.53088000       0.07442000
H        0.83938200      -2.22250800       0.22390500
H        1.66445600      -0.10843300      -0.90362800
H        1.70175100       0.07262300       0.83865100
