19
Properties=species:S:1:pos:R:3 pbc="F F F"
C        0.25728400       1.81479200      -0.90210800
C       -0.20309400       0.39676400      -1.21858000
C        0.23343200      -0.68180300      -0.19758100
C       -0.31253600      -0.42182100       1.23503400
N       -1.77605800      -0.37727300       1.32194500
C        1.75640900      -0.85990000      -0.16888000
H       -0.07467300       2.50311900      -1.67685600
H        1.34173900       1.87681200      -0.84535900
H       -0.14770100       2.16228700       0.04596700
H        0.17432700       0.11088000      -2.20651100
H       -1.29621100       0.38529600      -1.29739600
H       -0.20373500      -1.63317800      -0.54551600
H        0.05240000      -1.21808100       1.89990000
H        0.08946100       0.52180300       1.62649200
H       -2.18208900      -1.23560200       0.95736500
H       -2.14275900       0.40264800       0.78236900
H        2.25462300       0.03401900       0.20094800
H        2.14329100      -1.07028100      -1.16410600
H        2.03475900      -1.68699600       0.48178400
