16
Properties=species:S:1:pos:R:3 pbc="F F F"
N       -1.71657700       0.54780800       0.90725500
C       -0.26854800       0.43884500       0.87688100
C        0.48461100       1.25032300      -0.15609800
C        0.39813200      -0.26305900      -0.26963300
C       -0.43461000      -0.86526100      -1.38561400
N        1.59310900      -1.05194900       0.04249900
H       -2.01211100       1.36314500       1.43957600
H       -2.13746000      -0.28048200       1.32246400
H        0.23164500       0.34745300       1.85774500
H        1.42849100       1.69429600       0.14538800
H       -0.10634800       1.85051700      -0.83890300
H       -1.33147000      -0.27651900      -1.55678500
H       -0.73494100      -1.88305100      -1.14007700
H        0.13185000      -0.90624300      -2.31662000
H        2.10975100      -0.63604600       0.81303900
H        2.20735600      -1.10917100      -0.76731400
