21
Properties=species:S:1:pos:R:3 pbc="F F F"
C       -1.78745100       2.10997200      -1.07849000
C       -1.74350900       1.64106000       0.37115000
C       -1.08285100       0.26829700       0.56106600
C        0.42708800       0.26816900       0.28438500
C        1.07364200      -1.07807600       0.58295200
C        1.10674200      -2.15760900      -0.45553000
C        2.37007500      -1.45422700      -0.06742300
H       -2.29757800       3.06790000      -1.15773000
H       -2.31823500       1.39496400      -1.70406000
H       -0.78672400       2.23144600      -1.48753300
H       -2.76643800       1.59595000       0.76112500
H       -1.21688300       2.38529900       0.97853400
H       -1.57302000      -0.46703700      -0.08555900
H       -1.25612400      -0.06553900       1.59044900
H        0.90458900       1.04483900       0.89528400
H        0.61457500       0.53875000      -0.75920400
H        0.94348000      -1.41783900       1.61240800
H        0.69044600      -1.93949000      -1.43362800
H        0.97945100      -3.18606300      -0.13238900
H        2.80127400      -0.76350800      -0.78508500
H        3.09877000      -2.00518500       0.51872600
