16
Properties=species:S:1:pos:R:3 pbc="F F F"
N       -1.98374600      -0.96201700       1.08986600
C       -0.55311200      -0.84886500       0.78797400
C       -0.33395400      -0.16529700      -0.55483000
C       -0.17947200       1.33599400      -0.63977700
C        0.98488600       0.42331200      -0.94250600
N        2.13539900       0.33855900      -0.05210200
H       -2.12886400      -1.47499200       1.95531600
H       -2.47149600      -1.44547300       0.34021400
H       -0.05876300      -1.84538300       0.77895600
H       -0.07057400      -0.27469600       1.59237400
H       -0.90302500      -0.61778300      -1.37059300
H       -0.16510800       1.88470300       0.29613500
H       -0.66797500       1.85240200      -1.46065300
H        1.27005400       0.32951800      -1.99514400
H        1.84591400       0.37688800       0.92131100
H        2.77817200       1.10815700      -0.22743300
