17
Properties=species:S:1:pos:R:3 pbc="F F F"
C       -1.34882100       0.96117900       0.30841600
N        0.07055400       0.89177100      -0.03906600
C        0.73722700      -0.39477000       0.19253100
C        0.34362200      -1.32431600       1.28987600
C        0.11579200      -1.72730300      -0.14435400
C        0.34636600       1.41683600      -1.38089700
H       -1.49791200       0.70976900       1.36108600
H       -1.98488300       0.28956800      -0.29683800
H       -1.70803000       1.98208600       0.15149200
H        1.81389700      -0.31726400       0.00185500
H       -0.53128200      -1.10394800       1.89112100
H        1.13540700      -1.83112000       1.83324500
H       -0.91013100      -1.74778700      -0.49474400
H        0.74934200      -2.50631600      -0.55677000
H       -0.03076900       2.44022100      -1.46468100
H       -0.12001000       0.82135700      -2.18694200
H        1.42537400       1.43127000      -1.55879200
