16
Properties=species:S:1:pos:R:3 pbc="F F F"
C       -0.84927800      -2.33566900      -0.74783800
C       -1.20092000      -1.37408000       0.38120600
C       -0.66870800       0.04956700       0.17313300
C        0.85856900       0.14758700       0.23051100
C        1.37049500       1.57619700       0.09357800
O        0.67256900       2.54659700      -0.04866900
H       -1.28527000      -3.31552300      -0.56636900
H        0.22710500      -2.46366100      -0.84164300
H       -1.22587700      -1.97190700      -1.70151800
H       -0.82192700      -1.77002800       1.32956400
H       -2.29007800      -1.32708900       0.48168300
H       -1.09039300       0.70585700       0.94030200
H       -1.01539800       0.43918600      -0.78839300
H        1.31909000      -0.45888900      -0.55875100
H        1.23813000      -0.26497100       1.17388900
H        2.50312200       1.67263900       0.13704900
