16
Properties=species:S:1:pos:R:3 pbc="F F F"
C       -0.22792000       2.14747900      -1.11789500
C       -0.64508600       0.71888500      -0.79804300
C       -0.07942000       0.23517100       0.56187300
C       -0.52790200      -1.19948400       0.91065600
O        0.15956200      -2.13793200       0.08484200
O        1.34911000       0.24833800       0.54589100
H       -0.57687200       2.44540800      -2.10477200
H        0.85476200       2.23853100      -1.09407800
H       -0.63873300       2.84418700      -0.38951300
H       -0.29799600       0.04931100      -1.59405000
H       -1.73885200       0.64087200      -0.78233800
H       -0.41418100       0.93264600       1.35601900
H       -1.62340700      -1.32259600       0.79677700
H       -0.26961900      -1.44315000       1.95049400
H       -0.12478400      -2.03360700      -0.83351700
H        1.64228300      -0.64715700       0.30956200
