17
Properties=species:S:1:pos:R:3 pbc="F F F"
C       -1.26582200       1.36684300       1.13985100
C        0.19501900       0.96047100       1.00787100
C        0.38766800      -0.37671600       0.25821400
C       -0.09469700      -0.29267700      -1.18525300
C       -1.03735100      -1.07435200      -1.71153300
N        1.81836300      -0.75945400       0.30895700
H       -1.35864800       2.30951700       1.67530800
H       -1.83322100       0.61516800       1.68548800
H       -1.72912800       1.48780800       0.16293900
H        0.64411100       0.87082300       2.00168400
H        0.75123800       1.74867300       0.48811300
H       -0.18660800      -1.16329100       0.77879100
H        0.40227900       0.44475700      -1.81765900
H       -1.54978800      -1.82095700      -1.11475000
H       -1.32842600      -0.98884000      -2.75204800
H        2.38955300      -0.04933100      -0.14422300
H        1.96119400      -1.63955500      -0.18124000
