11
Properties=species:S:1:pos:R:3 pbc="F F F"
C       -1.18655500       0.06090000      -0.51682700
C        0.33674300       0.05571700      -0.47290400
C        0.88605600      -0.11062100       0.93883400
H       -1.54525400       0.18107600      -1.53697100
H       -1.59103300       0.87581000       0.07996900
H       -1.59104600      -0.87037200      -0.12572700
H        0.71600600       0.98848300      -0.90299900
H        0.71600000      -0.75155800      -1.10800100
H        0.55188200       0.69843600       1.58505300
H        1.97406900      -0.11012300       0.93475600
H        0.55191600      -1.04773300       1.37929900
