14
Properties=species:S:1:pos:R:3 pbc="F F F"
C       -1.69356700      -0.03339300       1.01635800
C       -0.16694100      -0.00697400       0.85517000
C        0.36364900       1.20879300       0.03745100
N        0.88777700       0.65914000      -1.22359700
C        0.80164100      -0.63463700      -1.14560100
N        0.32278700      -1.14912500       0.05885200
H       -2.03342900       0.82415900       1.59343900
H       -2.01692700      -0.93517200       1.53504600
H       -2.18983500      -0.00493800       0.04844100
H        0.28669200      -0.03131300       1.86755600
H        1.16523600       1.73807900       0.57769400
H       -0.41845900       1.95723300      -0.16573700
H        1.12578200      -1.31252200      -1.93940200
H       -0.22170000      -2.00836900       0.05591100
