15
Properties=species:S:1:pos:R:3 pbc="F F F"
C       -1.71626400       0.63295400      -0.38315400
C       -0.32279900       0.09526600      -0.15305200
N        0.32331600       0.17596600       0.97285400
O       -0.37769900       0.81255900       1.98578300
C        0.35067800      -0.58445100      -1.32811200
C        1.74722300      -1.11265000      -1.03343300
H       -2.07779700       1.16111400       0.49317700
H       -2.40968200      -0.17839700      -0.61058100
H       -1.73136800       1.31413100      -1.23502800
H        0.20759900       0.81524500       2.76666800
H        0.39323800       0.11978400      -2.17010700
H       -0.28800100      -1.40728300      -1.67682100
H        2.41357500      -0.30818200      -0.73013200
H        2.17141600      -1.58831500      -1.91555000
H        1.72637100      -1.84704600      -0.23136400
