17
Properties=species:S:1:pos:R:3 pbc="F F F"
C       -1.12635400       0.32280400       1.59489000
C       -1.51202900       0.40395100       0.13417800
C       -0.68698300       1.18564700      -0.84603200
C       -0.73966800      -0.31096300      -0.94315500
C        0.47680600      -1.19534300      -0.65428000
C        1.60602500      -0.52516800      -0.00870000
C        2.57908500      -0.01669000       0.49722900
H       -1.53631100       1.16706100       2.14860100
H       -0.04737200       0.32992200       1.72082600
H       -1.51485700      -0.58762700       2.05160400
H       -2.59110500       0.44315100      -0.03112500
H        0.23594800       1.62803200      -0.48726100
H       -1.20270000       1.76458100      -1.60678700
H       -1.35151600      -0.70674500      -1.75674700
H        0.17621800      -2.05431000      -0.03600500
H        0.83470200      -1.62060100      -1.60267200
H        3.41570500       0.45110900       0.95479000
