15
Properties=species:S:1:pos:R:3 pbc="F F F"
C       -2.06088000       1.48611700       0.10714400
C       -2.48828500       0.24076800      -0.09519200
C       -1.60947300      -0.96722600      -0.30460500
C       -0.16947200      -0.70904800      -0.24665700
C        1.02607600      -0.50867400      -0.17158300
C        2.44487200      -0.31080300      -0.13959900
C        3.07988900       0.48912900       0.72873300
H       -2.76187000       2.30007700       0.24748700
H       -1.00339800       1.72015300       0.13662400
H       -3.55917400       0.03561300      -0.12028800
H       -1.85879000      -1.42639700      -1.27464600
H       -1.86676800      -1.72985800       0.44817400
H        3.01577500      -0.86658400      -0.88710600
H        2.54074900       1.05125800       1.48077100
H        4.15711500       0.59416000       0.69953500
