18
Properties=species:S:1:pos:R:3 pbc="F F F"
C       -2.52413000      -0.00801200      -0.77356600
C       -1.47030700      -0.42729200      -1.75126000
C       -1.09474900       0.37780300      -0.54475100
C       -0.29946600      -0.26005000       0.58842100
C        1.20332000      -0.23480600       0.33095800
C        2.18697000      -0.29275400       1.44928400
N        1.94301800       0.96263800       0.73782700
H       -2.95471300      -0.77612900      -0.13889900
H       -3.22291900       0.76384400      -1.08017400
H       -1.45484100       0.05992000      -2.72100500
H       -1.19490600      -1.47705100      -1.77276300
H       -0.84689800       1.42371400      -0.73016900
H       -0.63038200      -1.29710800       0.72454200
H       -0.51001800       0.26239900       1.52793400
H        1.51592300      -0.68770400      -0.61949000
H        3.14806200      -0.78444800       1.28353100
H        1.83557400      -0.31685300       2.48174100
H        2.70416600       1.16161800       0.08544100
