14
Properties=species:S:1:pos:R:3 pbc="F F F"
C       -1.53395700      -0.52372800       1.21822300
C       -0.04718500      -0.47409100       1.10271700
C        0.63871500      -0.01256500       0.02955000
C       -0.04524800       0.51041000      -1.18654200
O       -1.24722200       0.57477000      -1.33821600
C        2.14649300      -0.00418200       0.00992400
H       -1.83685600      -0.93642100       2.17791800
H       -1.97175000      -1.13391400       0.42715400
H       -1.97174200       0.47018400       1.11693300
H        0.52562400      -0.84102100       1.95602000
H        0.65900500       0.86294700      -2.00421500
H        2.55921500      -0.40151900       0.93388100
H        2.53074300       1.00808300      -0.12654800
H        2.53063000      -0.60157100      -0.81864800
