9
Properties=species:S:1:pos:R:3 pbc="F F F"
C       -2.14624400      -1.87368000      -0.24899300
C       -0.80944100      -1.76497800      -0.23470900
C       -0.10723000      -0.53184500      -0.07089700
C        0.55189400       0.48692500       0.06458100
C        1.26640700       1.66997900       0.22199500
N        1.86551500       2.65424800       0.35310500
H       -2.62089000      -2.83835200      -0.37709500
H       -2.78748200      -1.00850800      -0.13397200
H       -0.18255200      -2.65128400      -0.35252700
