14
Properties=species:S:1:pos:R:3 pbc="F F F"
O       -1.19530500       0.09955700      -1.70143700
C       -0.80247300       0.01883300      -0.33384700
C        0.09765500      -1.19341500      -0.03495600
O        0.94908900      -0.78409700       1.03527600
C        1.02222600       0.64759900       1.11672000
C        0.07110000       1.21424400       0.06273100
H       -1.80073700      -0.62129200      -1.91938800
H       -1.71749600      -0.01922800       0.30180300
H        0.70089100      -1.47011500      -0.92386800
H       -0.45822900      -2.09392600       0.27849800
H        2.06839200       0.97218300       0.96015800
H        0.74340300       0.95685500       2.14267400
H        0.61756100       1.57152800      -0.81414500
H       -0.51510900       2.05675500       0.43966900
