20
Properties=species:S:1:pos:R:3 pbc="F F F"
C       -2.65446900      -0.35338800      -0.55490700
C       -1.13151200      -0.38143100      -0.60703500
C       -0.49659100       0.33919900       0.58885700
C        1.05025000       0.36845900       0.59575000
C        1.65979100      -1.03552100       0.69983600
C        1.62424800       1.13199600      -0.60485700
H       -3.08192600      -0.87095700      -1.41135400
H       -3.02805900       0.66880400      -0.56066500
H       -3.02501300      -0.83620200       0.34733300
H       -0.79398300       0.08117100      -1.53991500
H       -0.79068400      -1.42123300      -0.63673800
H       -0.84166900      -0.13521600       1.51434500
H       -0.86526700       1.37060900       0.61939400
H        1.34448200       0.92025800       1.50449000
H        1.44982800      -1.62725200      -0.18852600
H        1.26198000      -1.56904500       1.56079900
H        2.74077200      -0.97630200       0.80989900
H        1.42281800       0.61368400      -1.53985600
H        2.70324000       1.23705900      -0.51140100
H        1.19318600       2.12873700      -0.67366400
