17
Properties=species:S:1:pos:R:3 pbc="F F F"
C       -0.34753900       0.37158900       2.41746100
C       -0.80006000       0.24922900       0.95646600
C       -0.40761900       1.41097500       0.07616200
C        0.24877300       0.95691600      -1.01141500
C        0.36859700      -0.50476700      -0.93531000
C       -0.22157700      -0.92849900       0.20853700
C        1.03807500      -1.34601300      -1.97482400
H       -0.79025800       1.24916400       2.88564400
H        0.73385400       0.46225400       2.48564200
H       -0.64932100      -0.50513500       2.98786300
H       -1.90406800       0.16611200       0.95949500
H       -0.64539900       2.44642900       0.29622700
H        0.63295100       1.56463200      -1.82442500
H       -0.29623600      -1.95675700       0.54531800
H        2.07826400      -1.04688600      -2.11182900
H        0.54700500      -1.23750500      -2.94314000
H        1.02130300      -2.39889100      -1.70325300
