21
Properties=species:S:1:pos:R:3 pbc="F F F"
C       -1.99054800       0.25006100      -2.11873600
C       -1.93933700      -0.22481400      -0.67141100
C       -1.17757700       0.72474200       0.26526300
C        0.33667000       0.80128400       0.01234400
C        1.07994700      -0.48192200       0.36171300
C        2.54116200      -0.43678100       0.69047000
C        1.54128900      -0.73133700       1.76538200
H       -2.56217600      -0.44400400      -2.73141400
H       -0.99373100       0.32864500      -2.54736100
H       -2.46228200       1.22813800      -2.19148900
H       -1.49192300      -1.22318600      -0.62960000
H       -2.96366600      -0.33437100      -0.29827100
H       -1.35032300       0.41206100       1.30078400
H       -1.60199900       1.73073100       0.17346200
H        0.75028200       1.62463700       0.60450700
H        0.52031200       1.05670600      -1.03817100
H        0.74793700      -1.36286500      -0.19014200
H        3.03122000       0.53137300       0.71204400
H        3.17172100      -1.25053500       0.34623700
H        1.36045800       0.03987100       2.50728900
H        1.49453900      -1.74460100       2.15196900
