15
Properties=species:S:1:pos:R:3 pbc="F F F"
C        1.42000800      -0.73330900      -1.29823000
C        0.92701800       0.09295900      -0.10587500
C       -0.48041600       0.67570400      -0.37266500
C       -1.72837500      -0.04303000      -0.03998200
O       -1.25151600       1.01579000       0.78283400
N        0.97351300      -0.70827900       1.12818600
H        2.43178600      -1.09148900      -1.12512600
H        1.42131100      -0.13876500      -2.20992400
H        0.78414200      -1.60175900      -1.46516200
H        1.61361900       0.95226200       0.02478000
H       -0.52911300       1.43549900      -1.17223400
H       -1.68964900      -1.04043700       0.41731900
H       -2.65553500       0.17458400      -0.58593300
H        0.51190800      -1.60436100       0.99016900
H        0.47966500      -0.20784200       1.86665200
