9
Properties=species:S:1:pos:R:3 pbc="F F F"
C       -1.60709200       0.09192200      -0.04357400
C       -0.26052800       0.11200400      -0.05334400
C        0.48057100       1.22985200      -0.58741800
N        1.10731300       2.10374900      -1.00529300
C        0.53152100      -1.04940000       0.50123100
O        0.00603400      -2.02910200       0.96910200
H       -2.19676700       0.91256600      -0.43537200
H       -2.12347500      -0.76923500       0.36770100
H        1.65394100      -0.94302900       0.45053500
