16
Properties=species:S:1:pos:R:3 pbc="F F F"
C       -1.22521700      -0.20638500       1.51696000
O        0.15955400      -0.16893000       1.24340400
C        0.64841400       0.00272000      -0.01954200
C       -0.00515900       0.16298500      -1.19840200
C       -1.46197100       0.21389900      -1.57352900
C        2.16202800      -0.00014400       0.00130600
H       -1.33793200      -0.35288900       2.59739100
H       -1.71761900      -1.04288800       0.99865400
H       -1.71813600       0.73763100       1.24005600
H        0.65328900       0.27972000      -2.05734300
H       -2.14712100       0.10105400      -0.74184800
H       -1.69394600      -0.57040400      -2.29835800
H       -1.69391100       1.16299600      -2.06314800
H        2.53093400      -0.13778700       1.01380700
H        2.56975600       0.93585800      -0.38061700
H        2.56968000      -0.80029700      -0.61658400
