13
Properties=species:S:1:pos:R:3 pbc="F F F"
C       -0.61184400       0.02071400      -1.71463600
C       -0.64895200       0.07071200      -0.19268400
C        0.04865900      -1.05475900       0.58323100
C        0.95051100       0.04165900       1.13625500
O        0.27406100       1.04968500       0.36120600
H       -1.26116800      -0.76835700      -2.09143500
H        0.39659800      -0.16814800      -2.07663100
H       -0.94811800       0.96577600      -2.13609200
H       -1.68406400       0.27870200       0.15694900
H        0.55150500      -1.80389300      -0.03387400
H       -0.57078700      -1.57429100       1.31916000
H        2.02297400      -0.03027500       0.87643500
H        0.87033300       0.23305000       2.22284400
