18
Properties=species:S:1:pos:R:3 pbc="F F F"
C       -1.66082100      -0.96579700      -1.47604500
C       -0.16138900      -0.77442100      -1.28546500
C        0.24416300      -0.34318900       0.15186400
C       -0.25302400       1.08269200       0.50378400
N        0.13131700       1.50283000       1.85610600
N        1.71117900      -0.40203100       0.33492200
H       -1.87742300      -1.32523100      -2.48017200
H       -2.20485300      -0.03416400      -1.33387000
H       -2.05575700      -1.69287800      -0.76862600
H        0.20806600      -0.03566100      -2.00528800
H        0.35018500      -1.71383000      -1.52360700
H       -0.20312700      -1.05733300       0.86770800
H        0.15587800       1.80355600      -0.21953200
H       -1.34638300       1.12950100       0.41806300
H        1.14010500       1.41210300       1.96177400
H       -0.30501600       0.89656700       2.54701400
H        2.17129900       0.25265300      -0.29380900
H        2.05599000      -1.33659100       0.12833100
