21
Properties=species:S:1:pos:R:3 pbc="F F F"
C       -2.79585000      -0.58303900       0.75001100
C       -1.76979100       0.26204700       0.86415300
C       -1.12701100       0.98090100      -0.29042100
C        0.40834400       1.05500600      -0.22999100
C        1.13902600      -0.25737800      -0.60089300
C        2.62419800       0.02038700      -0.87512700
C        0.98555000      -1.33864800       0.47519400
H       -3.24254700      -1.04594500       1.62128900
H       -3.21275200      -0.83955900      -0.21695200
H       -1.37847400       0.49744100       1.85480800
H       -1.51004400       2.01182300      -0.29704200
H       -1.44708600       0.53326100      -1.23695900
H        0.72158800       1.38113600       0.76759000
H        0.73638400       1.83639400      -0.92466800
H        0.69185400      -0.63967300      -1.53308000
H        3.11933300       0.41348100       0.01076700
H        2.74417000       0.74816400      -1.67543100
H        3.14050100      -0.89139700      -1.16823300
H        1.40855100      -1.00892200       1.42230500
H        1.50245600      -2.24919300       0.17843200
H       -0.06073500      -1.58266400       0.63962200
