12
Properties=species:S:1:pos:R:3 pbc="F F F"
C       -1.12562800      -0.52092700      -1.32243700
N        0.32492700      -0.49122600      -1.14524800
C        0.78810700       0.54217200      -0.21063000
C        0.31072400       0.32188300       1.16137200
C       -0.05600000       0.19841700       2.30564700
H       -1.38688600      -1.29219000      -2.05030700
H       -1.53749100       0.44038900      -1.67890900
H       -1.61202200      -0.76024500      -0.37448300
H        0.78329600      -0.35801100      -2.04968200
H        0.47498500       1.56338000      -0.52732100
H        1.89006100       0.54142400      -0.21008400
H       -0.38965100       0.05456500       3.30381100
