14
Properties=species:S:1:pos:R:3 pbc="F F F"
C        0.68862800       1.46439100       0.50829400
C        0.79758800      -0.05851200       0.38340400
C       -0.57988000      -0.73281500       0.12577400
C       -1.17684300      -0.33633600      -1.14711900
C       -1.65804400      -0.00779800      -2.20574400
O        1.37482700      -0.61306900       1.56697300
H        1.66863400       1.90693100       0.67197300
H        0.05123200       1.74347200       1.34681000
H        0.26404000       1.89757100      -0.39419400
H        1.48091000      -0.31565500      -0.44541700
H       -0.45178600      -1.82166800       0.14124700
H       -1.27185400      -0.48719900       0.94249900
H       -2.09058400       0.27400800      -3.13396100
H        0.92209600      -0.26648300       2.34760100
