17
Properties=species:S:1:pos:R:3 pbc="F F F"
C        0.66917000      -1.71882200       0.85990400
C        0.06660000      -0.37300300       1.24740200
C        0.18545600       0.72871300       0.16550900
C       -0.51351200       0.38042000      -1.17831800
N       -1.96420700       0.18412900      -1.06461400
O        1.56126600       1.04317300      -0.08103700
H        0.58003000      -2.42656300       1.68105200
H        1.72759800      -1.62491200       0.62109700
H        0.16759000      -2.14876100      -0.00481600
H        0.55354000      -0.01347400       2.15877700
H       -0.99090700      -0.51026100       1.49878900
H       -0.27059600       1.65248700       0.57097200
H       -0.32596100       1.19362100      -1.89088500
H       -0.06978000      -0.52609500      -1.61290100
H       -2.41261800       1.01977800      -0.69678400
H       -2.17708900      -0.59474500      -0.44629000
H        2.03122600       0.24078700      -0.34539900
