18
Properties=species:S:1:pos:R:3 pbc="F F F"
C       -1.13743300       1.45925900       1.28697600
C       -1.51090000       0.99148700      -0.11412400
C       -0.84573400      -0.33184900      -0.52172500
C        0.66921700      -0.23712600      -0.65335700
C        1.56613100      -0.60648100       0.48864600
C        1.49464000      -1.48643500      -0.72006100
H       -1.64731400       2.38906600       1.53168800
H       -0.06700900       1.63199900       1.36977200
H       -1.41476200       0.71801400       2.03397400
H       -1.24499000       1.76899200      -0.83862500
H       -2.59831700       0.87351800      -0.17643600
H       -1.27099600      -0.65241300      -1.48152300
H       -1.10152500      -1.11122600       0.20313800
H        1.01318100       0.59033000      -1.27700300
H        1.10837600      -0.97142500       1.40220900
H        2.47067200      -0.02625400       0.64085100
H        0.98732600      -2.44049600      -0.61779700
H        2.34983100      -1.50324100      -1.38837800
