12
Properties=species:S:1:pos:R:3 pbc="F F F"
C       -2.32283200      -1.46437300      -0.34417400
N       -1.05097400      -1.41852200      -0.10773700
N       -0.48241100      -0.18397900       0.12069700
C        0.95058500      -0.10061900      -0.17309000
C        1.49260900       1.20786000       0.21011200
C        1.96220900       2.28237700       0.49795900
H       -2.79284400      -2.43839300      -0.47164200
H       -2.95347800      -0.56431300      -0.41704000
H       -1.03016100       0.60809100      -0.24188300
H        1.16713100      -0.27133800      -1.25013300
H        1.47969200      -0.89459000       0.37724700
H        2.36793700       3.22658100       0.76789100
