18
Properties=species:S:1:pos:R:3 pbc="F F F"
C       -1.71321000      -0.28998400       1.26868700
C       -0.19268000      -0.23154200       1.17068000
C        0.36428200       0.03885800      -0.26340900
O       -0.06870200      -1.00783400      -1.14948700
C       -0.12933000       1.39725300      -0.81681000
C        1.90208900      -0.00365900      -0.24000600
H       -2.01832300      -0.51162900       2.28895800
H       -2.12212700      -1.06924400       0.62752100
H       -2.17173800       0.65476100       0.98357900
H        0.22160800      -1.17885700       1.52770500
H        0.18205300       0.54360000       1.84688700
H       -1.03394600      -1.00317600      -1.20356900
H       -1.21332900       1.41561700      -0.91103400
H        0.29190500       1.58050800      -1.80224000
H        0.16586700       2.21708800      -0.16550100
H        2.25236800      -0.96877900       0.11776400
H        2.30633000       0.76930000       0.41032600
H        2.30204300       0.14792300      -1.23934600
