18
Properties=species:S:1:pos:R:3 pbc="F F F"
C       -2.40701900       1.34099400       0.59226900
C       -0.89084100       1.39150700       0.63402900
O       -0.35829100       0.28726300      -0.08859800
C        1.06412000       0.24179000      -0.07866900
C        1.54681800      -0.96129600      -0.88620800
C        1.11489300      -2.29151500      -0.28278900
H       -2.83652000       2.17168600       1.14897200
H       -2.77617300       0.41463600       1.02701100
H       -2.76999900       1.39510500      -0.43181900
H       -0.52615400       1.36837300       1.68522000
H       -0.51718100       2.34547500       0.19883500
H        1.43413400       0.18891700       0.96975500
H        1.47561300       1.18407800      -0.50654900
H        2.63974800      -0.92413100      -0.95983000
H        1.16410200      -0.88393800      -1.90877800
H        1.52506000      -2.41927900       0.71761200
H        1.45413100      -3.12517100      -0.89477900
H        0.03173500      -2.34273300      -0.20865100
