17
Properties=species:S:1:pos:R:3 pbc="F F F"
C       -3.35247200       1.02212100      -0.64807900
C       -2.14811000       0.92826900      -0.66549900
C       -0.68941000       0.81718800      -0.68783700
C       -0.13611800       0.00929300       0.49913700
C        1.38316200      -0.07914200       0.47243100
C        2.08427800      -1.20465900       1.16969100
C        2.06690900      -1.14779500      -0.32566000
H       -4.41115000       1.10481300      -0.63273300
H       -0.25435600       1.82559400      -0.68661400
H       -0.38107800       0.34889200      -1.63157400
H       -0.56490900      -0.99694600       0.48640300
H       -0.46322800       0.47596000       1.43518100
H        1.88938600       0.88772100       0.50156600
H        1.47736400      -1.96378700       1.65213000
H        3.02000200      -0.98972800       1.67538200
H        1.44707400      -1.86826000      -0.84958400
H        2.99146000      -0.89590900      -0.83526000
