17
Properties=species:S:1:pos:R:3 pbc="F F F"
C       -2.32244500       0.01992000      -0.17301000
C       -0.87745800       0.03048000      -0.66053000
C        0.02973700      -1.08873300      -0.09771900
C        0.87903300      -0.00872300       0.63315000
C        0.03880300       1.10140700      -0.02577800
N        2.31553900       0.04003800       0.35041000
H       -2.85407800      -0.85144000      -0.55216900
H       -2.85184500       0.90917700      -0.51143600
H       -2.37229400      -0.00482400       0.91385700
H       -0.87156300       0.06523400      -1.75980800
H        0.57568300      -1.63932400      -0.86763100
H       -0.46975400      -1.81261900       0.55102800
H        0.74259800      -0.04790200       1.72694300
H        0.59184700       1.69519800      -0.75674300
H       -0.45411700       1.78804200       0.66704600
H        2.48366100       0.06993400      -0.65228500
H        2.78506900      -0.77785300       0.73164700
