12
Properties=species:S:1:pos:R:3 pbc="F F F"
C       -2.01909800      -0.04038600       0.01679200
C       -0.51372900       0.04298600       0.03929600
C        0.14979800       1.01205900       0.73051900
N        1.52744900       1.16645100       0.73163100
C        0.22603300      -0.94945400      -0.69261800
N        0.83897100      -1.74529300      -1.26720900
H       -2.45555500       0.75165000       0.62160200
H       -2.37174800      -0.99778100       0.40450100
H       -2.40937700       0.05473800      -0.99827200
H       -0.40219500       1.76921400       1.28634300
H        2.07641600       0.38908400       0.38116400
H        1.93949700       1.69376500       1.48978100
