18
Properties=species:S:1:pos:R:3 pbc="F F F"
C       -1.39785300      -0.06019500       1.97302700
N       -1.66325700       0.26662700       0.57571500
C       -1.10112500      -0.67858300      -0.40645500
C        0.43886000      -0.71650500      -0.47866800
N        0.98661800       0.57204000      -0.92673900
C        2.44509400       0.59567400      -0.98434700
H       -1.89509300       0.66934500       2.61787200
H       -0.32447300      -0.06236000       2.23617100
H       -1.79640800      -1.05089200       2.20817500
H       -1.35086600       1.21738400       0.36804700
H       -1.50265800      -0.41602000      -1.39628900
H       -1.47257900      -1.68555200      -0.16877400
H        0.74357200      -1.49636600      -1.19344400
H        0.85965600      -1.02033900       0.50354700
H        0.65281500       1.31956800      -0.31366500
H        2.80518600      -0.12619800      -1.72309900
H        2.92322200       0.34846100      -0.01882300
H        2.78424800       1.58995500      -1.28388700
