19
Properties=species:S:1:pos:R:3 pbc="F F F"
C       -0.94156700      -1.08785000      -1.82635700
C       -1.39491500       0.08433200      -0.96561100
C       -0.82406600       0.04652300       0.45867600
N        0.65352500       0.00744100       0.50066500
C        1.28886800       1.22147900      -0.02216200
C        1.14993100      -0.33130700       1.83855300
H       -1.36655400      -1.02318400      -2.82622100
H       -1.25050500      -2.03608000      -1.39054300
H        0.14184500      -1.10240200      -1.91904100
H       -2.48840600       0.08648900      -0.89714900
H       -1.12151800       1.02438500      -1.45641400
H       -1.19470100      -0.85467400       0.96924900
H       -1.22319300       0.91298700       1.03084700
H        0.99508700       1.38963000      -1.06096500
H        2.37586200       1.10791100       0.00968300
H        1.02831200       2.12872900       0.55460800
H        0.71591900      -1.27916800       2.16868400
H        0.90581200       0.43366700       2.59954600
H        2.23786000      -0.43944300       1.81447000
