17
Properties=species:S:1:pos:R:3 pbc="F F F"
C       -2.55437300      -0.84334700      -0.89987100
C       -1.03407700      -0.83804600      -0.80511100
C       -0.51949500      -0.05010700       0.40722500
C        1.00036900      -0.05716400       0.50140400
C        1.74544700       1.04011900       1.18141000
N        1.73501500       0.94205100      -0.27876600
H       -2.88726400      -1.40984600      -1.76712500
H       -2.94402300       0.16856500      -0.99113800
H       -3.00132900      -1.29193000      -0.01458100
H       -0.61152300      -0.40972700      -1.71909700
H       -0.66772400      -1.86947300      -0.75058100
H       -0.94483500      -0.47648300       1.32473700
H       -0.87425700       0.98301500       0.35119700
H        1.45535600      -1.05655100       0.54300300
H        2.68206700       0.80695600       1.69264200
H        1.20209300       1.89181500       1.59339300
H        2.61910800       0.56057100      -0.62142800
