13
Properties=species:S:1:pos:R:3 pbc="F F F"
C       -1.77843400       0.91512900      -0.69509700
C       -0.28369500       0.96037300      -0.39797800
C        0.32614600      -0.42917300      -0.26418900
C        0.49833200      -1.08801100       1.04759600
O        1.60440500      -0.50767000       0.36484900
H       -2.18162400       1.91871900      -0.80965500
H       -2.32654400       0.42485600       0.10769500
H       -1.97769200       0.36854200      -1.61521300
H       -0.10300400       1.52504300       0.52133200
H        0.22867100       1.50216600      -1.20089500
H        0.22884700      -1.07397600      -1.15469700
H        0.52214200      -2.18303200       1.12207500
H        0.19986800      -0.57086900       1.96857700
