18
Properties=species:S:1:pos:R:3 pbc="F F F"
C       -2.25130700       0.21697300       1.52484000
C       -1.13311400       0.85417600       0.70360100
C       -0.52011600      -0.10848500      -0.28264900
C        0.78689400      -0.25610400      -0.56956000
C        1.89866400       0.52862400       0.07580600
C        1.23311300      -1.24978100      -1.61242100
H       -2.69795800       0.94436500       2.19987600
H       -1.87514600      -0.60952900       2.12369200
H       -3.03769600      -0.17025000       0.87989300
H       -0.37287200       1.26225700       1.37652000
H       -1.54629400       1.71474200       0.15721300
H       -1.23174100      -0.73124300      -0.82510100
H        1.57457500       1.04952900       0.97279900
H        2.29654700       1.27365700      -0.61617400
H        2.72663400      -0.12825300       0.34262400
H        0.38951700      -1.78012200      -2.04767400
H        1.91464700      -1.98614300      -1.18333600
H        1.77498500      -0.75142800      -2.41803700
