19
Properties=species:S:1:pos:R:3 pbc="F F F"
C       -2.29309300       0.17526500       0.02613000
C       -0.81802800      -0.07900700      -0.13247000
C       -0.19343800       0.26286400      -1.28425800
C        1.21310100       0.08649800      -1.65357400
C        2.28751100       0.12865200      -0.85123400
C       -0.15006200      -0.76988400       1.03789800
C        0.16741300       0.17871100       2.19526300
H       -2.70917700       0.69052800      -0.83647600
H       -2.48978400       0.78011900       0.91301100
H       -2.83856800      -0.76101300       0.15945200
H       -0.81434500       0.68345300      -2.07706600
H        1.38255700      -0.04822300      -2.72395300
H        2.21353800       0.32564700       0.21020700
H        3.28230600      -0.00244900      -1.25948400
H        0.76870500      -1.26417200       0.71014700
H       -0.81930300      -1.55728200       1.40645000
H        0.85820100       0.95982200       1.88496600
H        0.62164200      -0.36462400       3.02152500
H       -0.73620100       0.65960800       2.56469500
