19
Properties=species:S:1:pos:R:3 pbc="F F F"
C       -3.25517700       0.00000200       0.00000200
C       -1.79759700      -0.00002600       0.00000200
C       -0.58796900      -0.00000400       0.00001500
C        0.90192300       0.00000200       0.00000400
C        1.41466700      -1.25612800      -0.74476400
C        1.41466300       1.27304800      -0.71546700
C        1.41469700      -0.01691100       1.46020700
H       -3.64372200       0.54302600       0.86356900
H       -3.64377600      -1.01935600       0.03847200
H       -3.64372800       0.47639900      -0.90203100
H        1.06522400      -1.26645100      -1.77441000
H        1.06532800      -2.16446500      -0.25970100
H        2.50274100      -1.27475100      -0.75586400
H        1.06525100       1.30720200      -1.74461000
H        2.50273700       1.29193700      -0.72611100
H        1.06529200       2.16990400      -0.20951500
H        1.06529900      -0.90346400       1.98398400
H        1.06534700       0.85730500       2.00436000
H        2.50277100      -0.01718400       1.48186300
