19
Properties=species:S:1:pos:R:3 pbc="F F F"
C        0.64197900       1.74102300       1.20623400
C        1.52216400       0.61204400       0.65757300
C        0.29799900      -0.33147500       0.66340500
C       -0.60473900       0.87051900       1.00718000
C        0.02847800      -1.13731900      -0.60397200
C       -1.36728200      -1.42183700      -1.06919600
C       -0.48576400      -0.50772900      -1.86197300
H        0.66259000       2.67457400       0.63783400
H        0.84327300       1.98008000       2.25334100
H        2.36129600       0.30999900       1.29027900
H        1.90775400       0.81497200      -0.34408000
H        0.35139400      -1.03020200       1.51307100
H       -1.24186100       0.74437400       1.88686700
H       -1.23548600       1.20217400       0.17939300
H        0.74436000      -1.94927800      -0.75325000
H       -2.18958500      -0.97380400      -0.52056200
H       -1.58326500      -2.40423900      -1.47751300
H       -0.71886600       0.55218700      -1.85260100
H       -0.09861500      -0.87220000      -2.80829800
