17
Properties=species:S:1:pos:R:3 pbc="F F F"
C       -0.19838600       2.21227800      -0.80853200
C       -0.32620700       1.07979800       0.20185700
C        0.28989700      -0.25947200      -0.28921200
C       -0.06416100      -1.41535300       0.67065700
O       -1.46869500      -1.60340900       0.76620600
N        1.75737000      -0.19851500      -0.44474000
H       -0.66943100       3.11904200      -0.43482700
H       -0.67406200       1.95199200      -1.75248500
H        0.84521500       2.44331600      -1.01569700
H       -1.38248800       0.91000100       0.42997400
H        0.15069800       1.37224800       1.14340000
H       -0.13671100      -0.49203900      -1.28381800
H        0.42239100      -2.35066300       0.32726800
H        0.30821400      -1.20597100       1.68465600
H       -1.83398600      -1.78103500      -0.11031900
H        2.19972500       0.01051000       0.44787300
H        2.01154600       0.53597500      -1.10110100
