17
Properties=species:S:1:pos:R:3 pbc="F F F"
C        0.39931800      -1.38265200       0.80424600
C        0.06803900       0.10378600       0.56010900
N       -1.38923300       0.37371900       0.45716800
C       -2.08117100      -0.23568900      -0.67714100
C        0.81796200       0.65840100      -0.66991000
O        2.22191900       0.66331800      -0.45186300
H        1.47250000      -1.51372600       0.91952800
H        0.07594000      -2.00174200      -0.02981300
H       -0.09023500      -1.74724600       1.70583900
H        0.41930900       0.67262500       1.44505200
H       -1.84159400       0.07923300       1.32600300
H       -1.70596300       0.16854500      -1.62093400
H       -3.14557200       0.00047700      -0.61081600
H       -1.98339600      -1.33431100      -0.71900300
H        0.46474300       1.68619300      -0.89374600
H        0.63224800       0.04362800      -1.56206000
H        2.42641100       1.16066600       0.35085100
