21
Properties=species:S:1:pos:R:3 pbc="F F F"
C       -0.73876700       1.14468900       1.38981900
C       -0.24101700       1.21745900      -0.05931700
C        0.42103300      -0.09050000      -0.56106000
C        1.61497200      -0.66152900       0.23239700
C        0.92971800      -2.03332900       0.26391600
C       -0.32531300      -1.42891800      -0.37795600
C       -1.38000000       1.63505700      -1.00022400
H        0.06019600       0.85691100       2.06958400
H       -1.54757700       0.42479000       1.49708800
H       -1.11620100       2.11420600       1.70913600
H        0.53341500       2.00214400      -0.10337200
H        0.69501000       0.05959300      -1.61622800
H        1.75229800      -0.21697600       1.22102500
H        2.57698200      -0.62911700      -0.28657000
H        0.78645900      -2.46217900       1.25919400
H        1.42279900      -2.78510200      -0.35722500
H       -1.18008100      -1.37545000       0.29999600
H       -0.65909100      -1.90912400      -1.30189400
H       -2.17005800       0.88679300      -1.01293600
H       -1.01826300       1.75702700      -2.01947900
H       -1.81964200       2.57890800      -0.68376900
