10
Properties=species:S:1:pos:R:3 pbc="F F F"
C        0.70562300       0.95636000      -0.05254800
C        1.36126200      -0.43583400       0.11497800
N        0.04446100      -1.05676100      -0.02669100
C       -0.61737300       0.16253800      -0.05170700
O       -1.80629800       0.43279200      -0.05887200
H        0.94881500       1.47474800      -0.98205700
H        0.84814200       1.64275200       0.78382200
H        1.82963300      -0.60204300       1.09804400
H        2.08171000      -0.73256100      -0.66287800
H       -0.26621300      -1.94628600       0.35654200
