16
Properties=species:S:1:pos:R:3 pbc="F F F"
C       -2.70587700      -1.06318600       0.80887300
C       -1.18487100      -1.01499000       0.77155900
C       -0.65758000       0.12864700      -0.09762800
N        0.79914100       0.14009700      -0.10686300
C        1.54479000       1.06370200      -0.80903000
N        2.84106200       1.10261100      -0.83858500
H       -3.05085000      -1.88393500       1.43298400
H       -3.11698800      -1.20358000      -0.18870400
H       -3.11635600      -0.13933100       1.21122900
H       -0.79595700      -1.96678000       0.39415700
H       -0.79532600      -0.90658300       1.78944600
H       -1.05067000       1.09160500       0.27812800
H       -1.05102100       0.02470900      -1.12589900
H        1.28841200      -0.56732100       0.43262100
H        0.95537800       1.80383400      -1.37190300
H        3.27319300       0.36339100      -0.27657100
