19
Properties=species:S:1:pos:R:3 pbc="F F F"
C       -2.87713100      -0.68978900      -0.58404500
C       -1.41925300      -0.61741700      -0.26671700
C       -0.61463100       0.38400200      -0.67038300
C        0.82327300       0.50287200      -0.39372800
C        1.52178400       1.53272500      -0.91470100
C        1.51253200      -0.53185400       0.47643700
C        1.21820200      -0.34782900       1.96521400
H       -3.11474100      -1.61240500      -1.11706700
H       -3.19702200       0.15079100      -1.19571800
H       -3.47522600      -0.69412600       0.32958600
H       -1.01625100      -1.43873800       0.32492600
H       -1.04588200       1.18699500      -1.26916800
H        1.03869300       2.28052600      -1.53249200
H        2.58321400       1.64398700      -0.73173400
H        2.59352000      -0.47160900       0.31745600
H        1.20681300      -1.53848600       0.16909500
H        1.56042300       0.62524600       2.31024400
H        1.72575900      -1.11073100       2.55281200
H        0.15204300      -0.41770800       2.16959900
