14
Properties=species:S:1:pos:R:3 pbc="F F F"
O       -2.47289200      -0.64377600       0.19545800
C       -1.14886300      -0.19788500       0.42420000
C       -0.50753700       0.15990200      -0.88219600
C        0.80916900       0.32942800      -1.11843500
C        1.92465900       0.20239200      -0.17997200
C        1.89117100       0.30088800       1.15809400
H       -2.88982300      -0.88772100       1.03152200
H       -0.56389800      -0.98043100       0.95616200
H       -1.16589900       0.68377700       1.10697900
H       -1.19601300       0.26636200      -1.71894200
H        1.10638600       0.54787700      -2.14431600
H        2.89289800       0.02807400      -0.65126500
H        0.98806600       0.53101700       1.70814900
H        2.79982200       0.19291100       1.73790300
