15
Properties=species:S:1:pos:R:3 pbc="F F F"
C       -0.35622300       0.00624600       1.97819800
C       -0.71106700       0.02022700       0.50556600
C        0.13176800       0.76275900      -0.50937600
C        0.15967100      -0.73222200      -0.50940100
N       -0.44976900      -1.46682500      -1.60907400
O        1.26305500       1.49474800      -0.09643800
H       -0.69204900       0.91548900       2.47734700
H        0.71979200      -0.07618400       2.12781900
H       -0.82248400      -0.83859800       2.48438800
H       -1.78340400       0.00897200       0.30364000
H       -0.38890700       1.27456400      -1.32487100
H        1.05461300      -1.21406500      -0.10381100
H       -1.10473300      -0.88524200      -2.12470800
H       -0.94056000      -2.29374300      -1.27463400
H        1.65677700       1.07653400       0.67992500
