19
Properties=species:S:1:pos:R:3 pbc="F F F"
C       -2.61497900      -1.07817500      -0.49894400
C       -1.65888700      -0.86925900       0.40662900
C       -1.12536900       0.48574400       0.78671000
C        0.39557300       0.51608600       0.98539900
C        1.25021900       0.33734900      -0.25334400
C        0.76323400       0.22527800      -1.49605600
C        2.73348000       0.30981100       0.00916300
H       -2.97739600      -2.07612700      -0.71258700
H       -3.05764700      -0.25919900      -1.05407500
H       -1.23549700      -1.71874900       0.94368200
H       -1.58954000       0.78369100       1.73812000
H       -1.43286300       1.23554600       0.05172000
H        0.67822300      -0.25351600       1.71613700
H        0.67156700       1.47071900       1.45404500
H       -0.29932200       0.23983600      -1.69679400
H        1.43037400       0.10681100      -2.34105400
H        3.05838900       1.22694100       0.50262100
H        3.29960600       0.19890400      -0.91178900
H        2.99448100      -0.51586100       0.67262600
