18
Properties=species:S:1:pos:R:3 pbc="F F F"
C       -1.04159200      -0.37865200      -2.23361400
N       -1.33379100      -0.37069000      -0.80463300
C       -0.78379100       0.77405100      -0.06020500
C        0.75787100       0.80332800       0.05399500
C        1.33990800      -0.36954800       0.84987000
N        0.84171200      -0.38645800       2.22763600
H       -1.52328400      -1.24286000      -2.69889300
H        0.03713800      -0.43101400      -2.47069100
H       -1.43777700       0.52610500      -2.70344200
H       -1.02493700      -1.24509700      -0.37461400
H       -1.21561800       0.76260700       0.95073700
H       -1.12454600       1.70022000      -0.54538800
H        1.05336400       1.74419900       0.53268600
H        1.20529900       0.81243500      -0.94529500
H        2.44944300      -0.31280600       0.81483100
H        1.07036000      -1.32135300       0.36815700
H        1.06440200       0.48577800       2.70026700
H        1.25632800      -1.15325200       2.75034400
