21
Properties=species:S:1:pos:R:3 pbc="F F F"
C        0.34528000      -1.83349300      -1.83928300
C       -0.05768400      -0.61913500      -0.98825000
C        0.51607500      -0.77078200       0.44197400
C       -0.08898300       0.09170600       1.55409400
C        0.06489700       1.58149100       1.62663300
C       -1.28415300       0.97902700       1.38649200
C        0.38585100       0.67641400      -1.68056900
H       -0.01003000      -2.75992600      -1.39217300
H        1.42703400      -1.90315500      -1.93611700
H       -0.07396300      -1.76012600      -2.84074600
H       -1.15724000      -0.61260600      -0.92216500
H        1.60112400      -0.61133500       0.40986400
H        0.38357300      -1.81774000       0.73996700
H       -0.03100800      -0.40269300       2.52651200
H        0.54509600       2.09837600       0.80316400
H        0.25648800       2.02327100       2.59981500
H       -1.71623800       1.09028500       0.39779800
H       -2.00799800       1.01487100       2.19507500
H        1.47108900       0.75014200      -1.71132900
H        0.00246600       1.55585200      -1.17023700
H        0.02189900       0.70340600      -2.70596800
