16
Properties=species:S:1:pos:R:3 pbc="F F F"
N       -0.93933500       1.68742900      -0.88012800
C       -1.21997200       1.12768400       0.44440300
C       -0.77715700      -0.33684600       0.55037500
N        0.68946400      -0.45715700       0.61296700
C        1.25845500      -1.73049600       0.17059700
C        1.40010500      -0.50495300      -0.66352400
H       -1.22268800       2.66257300      -0.92497100
H       -1.43600700       1.17150500      -1.60204600
H       -2.30210300       1.19208400       0.69407400
H       -0.69373200       1.72973000       1.19712000
H       -1.20220600      -0.91792800      -0.29360600
H       -1.19740000      -0.77118500       1.47168900
H        0.56606500      -2.50702700      -0.16551600
H        2.10697300      -2.09620100       0.75217200
H        0.80741600      -0.43265700      -1.57801700
H        2.35418200       0.02486400      -0.69188400
