16
Properties=species:S:1:pos:R:3 pbc="F F F"
C       -1.41451700       0.86181400       0.25723500
C        0.11206900       0.75224700       0.28737900
C        0.63012600      -0.41349800       1.10530100
C       -0.08834600      -1.43718300       1.56843500
C        0.69281900       0.67340700      -1.15183700
O        0.23862900      -0.47944300      -1.83160300
H       -1.82607600       0.89533100       1.26362000
H       -1.85500900       0.01555500      -0.26466400
H       -1.71725500       1.76772900      -0.26400800
H        0.51656000       1.67313200       0.74319500
H        1.70519200      -0.39985500       1.29342100
H       -1.15799400      -1.50580500       1.41253900
H        0.37925300      -2.23225400       2.13635600
H        1.80439100       0.68108100      -1.10290800
H        0.38518800       1.55406700      -1.73675800
H        0.26380900      -1.23415800      -1.22705000
