15
Properties=species:S:1:pos:R:3 pbc="F F F"
N        0.09053600       2.29549200       0.56881200
C       -0.40416700       1.29385100      -0.37786400
C        0.41946500       0.00280700      -0.28774100
C        0.24667200      -0.84581700       0.97622800
O       -0.22799700      -1.96292400       0.19819500
C       -0.11992200      -1.22170000      -1.03126700
H       -0.47159700       3.14140400       0.52500200
H        1.05744600       2.53756200       0.36698000
H       -0.38635600       1.66673900      -1.42545200
H       -1.45706800       1.08147500      -0.14480100
H        1.47259500       0.22280400      -0.52003500
H       -0.51331800      -0.49298600       1.69645200
H        1.16960500      -1.09262500       1.53301200
H       -1.10248900      -1.09762100      -1.52614400
H        0.56911600      -1.70665400      -1.74838700
