16
Properties=species:S:1:pos:R:3 pbc="F F F"
C       -2.33084300       0.27538300      -1.76073800
C       -1.22055000       1.05383700      -1.05913000
C       -0.61651200       0.30031500       0.10045900
N        0.66899100       0.18365500       0.22079100
N        1.14630400      -0.44869700       1.36453400
C        2.44717700      -1.08722500       1.21614300
H       -2.76742300       0.86340000      -2.56563300
H       -3.12630800       0.01692900      -1.06398800
H       -1.95155700      -0.64981000      -2.18941200
H       -1.63527400       2.00663700      -0.69814900
H       -0.43541600       1.31250700      -1.77535500
H       -1.31081200      -0.13422800       0.84746200
H        0.44581400      -1.05395200       1.81487500
H        3.15769200      -0.38459100       0.77757700
H        2.42183300      -1.98591400       0.57593100
H        2.81875400      -1.38954500       2.19900600
