13
Properties=species:S:1:pos:R:3 pbc="F F F"
O       -0.93859300      -1.00307300       1.59374800
C       -1.35524700      -0.08955800       0.59518300
C       -0.77265400      -0.51251600      -0.75276700
C        0.76308700      -0.51796000      -0.74775300
C        1.33129200       0.82205400      -0.60029700
N        1.78111800       1.87562700      -0.48951000
H       -1.27039000      -0.72252000       2.45622100
H       -1.02609000       0.93700200       0.85554400
H       -2.46442300      -0.06597600       0.53797900
H       -1.14258900       0.15404100      -1.53833900
H       -1.12239200      -1.51980900      -0.99789100
H        1.14421800      -0.95568500      -1.67863000
H        1.12372100      -1.14397700       0.07551000
