13
Properties=species:S:1:pos:R:3 pbc="F F F"
C       -2.10986200       0.49020800      -0.98260400
O       -0.72751100       0.20233900      -1.04227800
C       -0.10123300      -0.01886500       0.14972400
C        1.22727600      -0.21905300       0.22069800
C        1.94585500      -0.48833300       1.50828800
H       -2.50931700       0.45346100      -2.00050600
H       -2.29223500       1.49648700      -0.56845300
H       -2.64842600      -0.24155000      -0.35913000
H       -0.74686200      -0.03732600       1.03970400
H        1.81922500      -0.19115000      -0.68976100
H        1.26027500      -0.47743500       2.35355200
H        2.72276800       0.25633500       1.69494000
H        2.44244100      -1.46128300       1.49123500
