15
Properties=species:S:1:pos:R:3 pbc="F F F"
C       -2.62994400       0.10024300      -0.87149800
C       -1.10960200       0.15466900      -0.86024600
N       -0.61597400       0.68332900       0.42303900
C        0.85105600       0.69037200       0.53332700
C        1.48114700      -0.70922900       0.59653100
O        2.63631700      -0.93794500       0.34171700
H       -2.99479900      -0.27035200      -1.82650000
H       -3.05658900       1.08680500      -0.70542400
H       -3.00368800      -0.55941700      -0.09000500
H       -0.74978400       0.80599900      -1.67038100
H       -0.69831600      -0.85518700      -1.07234200
H       -1.02507800       0.15208700       1.19654100
H        1.13282600       1.22942600       1.45167200
H        1.27877800       1.25479800      -0.30435700
H        0.78198600      -1.54023100       0.93709800
