12
Properties=species:S:1:pos:R:3 pbc="F F F"
O       -1.11591300       0.71219400      -2.10218200
C       -1.62647800       0.42219800      -1.05157400
C       -0.85524700      -0.00458500       0.19205900
C        0.66208800      -0.03289000      -0.03730100
C        1.40089100      -0.44099200       1.15734200
C        2.01114200      -0.77772300       2.14385500
H       -2.75361200       0.45071400      -0.91905400
H       -1.21629500      -0.99054000       0.50690300
H       -1.10870300       0.67756500       1.01187800
H        1.00277600       0.95993500      -0.35486800
H        0.89468900      -0.71801800      -0.86138200
H        2.55407100      -1.07326100       3.00769300
