17
Properties=species:S:1:pos:R:3 pbc="F F F"
C       -2.10142300      -0.35492000      -0.98498800
C       -0.89825200      -0.23471000      -0.40697900
C       -0.15713600      -1.33948500       0.31916200
C        1.32434300      -0.91749900       0.34255100
C        1.32968900       0.58044400       0.05932300
C       -0.04210800       0.98553700      -0.41228100
C        0.47111400       1.43450200       0.93547100
H       -2.64367100      -1.29180400      -0.96370800
H       -2.56826000       0.48298400      -1.48744800
H       -0.30191800      -2.31371100      -0.15647000
H       -0.54511700      -1.43848500       1.34079500
H        1.88631900      -1.44361200      -0.43675400
H        1.80542100      -1.16590300       1.29497500
H        2.22391300       1.02336900      -0.37883900
H       -0.18786000       1.74226000      -1.18224800
H        0.03492800       0.99903500       1.82886800
H        0.73888500       2.48264700       1.02727700
