14
Properties=species:S:1:pos:R:3 pbc="F F F"
C       -0.04532600      -2.16323400      -0.69654400
C       -0.48474700      -0.94949900      -0.30638300
N        0.28605000       0.15610500       0.05001800
C       -0.29429200       1.36620200       0.43991400
N       -1.55276200       1.64779700       0.53186900
C        1.74375800       0.10823400       0.03446100
H       -0.76636600      -2.92760100      -0.94331800
H        1.00174200      -2.41837800      -0.77742500
H       -1.55847400      -0.76781200      -0.24901300
H        0.44848700       2.14169200       0.68867000
H       -2.17778000       0.87594300       0.28437200
H        2.09053400      -0.87153100      -0.28160700
H        2.15634100       0.31351900       1.03015900
H        2.15614300       0.85664100      -0.65373700
