17
Properties=species:S:1:pos:R:3 pbc="F F F"
C        1.81328700       0.57665500       0.44323000
C        2.05342200      -0.82698200       0.00498800
N        1.05680100      -0.52703000       1.03148400
C       -0.37901500      -0.67946900       0.70441400
C       -0.85054800      -0.10171800      -0.63009500
C       -2.28954300       0.23748300      -0.82160800
N       -1.29038800       1.29854600      -0.69491000
H        1.29407200       1.25232700      -0.23789700
H        2.52721000       1.06088000       1.11338800
H        2.93771300      -1.36250000       0.35790900
H        1.70510700      -1.13354400      -0.98398100
H       -0.96129500      -0.21560300       1.51711200
H       -0.61151700      -1.75678200       0.74004800
H       -0.29447000      -0.42832100      -1.51667700
H       -2.97939300       0.09860300       0.01395200
H       -2.74536600       0.14201800      -1.80827500
H       -1.32256900       1.70649700       0.24282800
