21
Properties=species:S:1:pos:R:3 pbc="F F F"
C        0.05054600      -1.11313100       2.05475500
C       -0.82771200      -0.55985700       0.93640200
C       -0.08221700       0.37141400      -0.02842300
C        1.01146100      -0.28007200      -0.88462400
C        0.48131600      -1.30910700      -1.87873600
C       -0.86650200       1.49644400      -0.64806800
C        0.14560500       1.78987400       0.41940000
H       -0.53094000      -1.74463400       2.72366200
H        0.48382300      -0.30851300       2.64568300
H        0.86756600      -1.71192600       1.65764800
H       -1.66638600      -0.01280100       1.37910100
H       -1.26709900      -1.39379600       0.37684100
H        1.75251200      -0.75761400      -0.23310800
H        1.54492800       0.50357000      -1.43256100
H        0.00014100      -2.14160000      -1.36949200
H        1.29148200      -1.71281800      -2.48282600
H       -0.24807700      -0.86249600      -2.55158300
H       -1.91537500       1.60188400      -0.38796000
H       -0.62386400       1.79340600      -1.66357700
H       -0.22604700       2.08608400       1.39520700
H        1.06235100       2.28785700       0.11872600
