16
Properties=species:S:1:pos:R:3 pbc="F F F"
C       -0.92971900       0.64505600       1.95598000
C       -1.25022500      -0.36775400       0.86404900
O       -0.73604200       0.04830000      -0.41005800
C        0.57823300      -0.12768500      -0.69587400
C        1.49100400      -0.70453500       0.12096500
C        0.92348400       0.39367800      -2.06262500
H       -1.35665300       0.32958800       2.90596300
H       -1.34212900       1.62032800       1.70672900
H        0.14382300       0.75829200       2.08577100
H       -2.34039000      -0.45995400       0.73687600
H       -0.86114300      -1.36936800       1.11706700
H        1.24490700      -1.08331800       1.10097600
H        2.51169500      -0.80955700      -0.21522700
H        0.32745900      -0.10297400      -2.82804100
H        1.97381500       0.23783000      -2.28983300
H        0.71028900       1.46017900      -2.13478800
