17
Properties=species:S:1:pos:R:3 pbc="F F F"
C       -1.74018700      -0.14472000       1.87603100
C       -1.94161500      -0.46280300       0.59715600
C       -1.17606000       0.13724400      -0.56299500
C        0.32304100      -0.14376700      -0.51954300
C        0.77829300      -1.41131300      -0.50835500
C        1.21391800       1.03194100      -0.50947700
C        2.55356000       1.01286100      -0.47917900
H       -2.32367700      -0.60302600       2.66512700
H       -0.98452200       0.57404400       2.16976000
H       -2.70950100      -1.19537300       0.34708700
H       -1.33856600       1.22141700      -0.58645800
H       -1.58960400      -0.25199100      -1.50019200
H        0.09361900      -2.25000200      -0.51123000
H        1.83826100      -1.63319500      -0.48715700
H        0.71185400       2.00025300      -0.52774200
H        3.11510000       0.08614700      -0.45842500
H        3.12132700       1.93506600      -0.47259600
