17
Properties=species:S:1:pos:R:3 pbc="F F F"
C       -1.33419700      -0.24990100       1.04477800
C        0.16353100      -0.25423100       0.70620200
C        0.73504200      -1.60537200       0.84608600
C        1.21432600      -2.70832900       0.96131800
C        0.43575100       0.30526200      -0.71645800
C        0.04456100       1.75016400      -0.85233800
C       -0.74425600       2.23117000      -1.81375100
H       -1.50346700      -0.61422100       2.05547800
H       -1.89040400      -0.88482800       0.35902100
H       -1.73482200       0.75886400       0.97189300
H        0.68210800       0.39891200       1.43122900
H        1.62945400      -3.68052300       1.06564800
H       -0.08807400      -0.30019400      -1.46134200
H        1.50857800       0.20573800      -0.92596200
H        0.46138900       2.43282300      -0.11030600
H       -1.17693400       1.58348700      -2.56746000
H       -0.97637500       3.28736000      -1.87321700
