21
Properties=species:S:1:pos:R:3 pbc="F F F"
C       -1.49046000       0.11387700      -1.94869100
C       -1.60720400      -1.12599700      -1.07094800
C       -1.04230800      -0.95502300       0.34773300
C        0.49409000      -1.05162300       0.46085200
C        1.24825700       0.11018600      -0.13660900
C        1.56611600       1.25173600       0.48971000
C        1.22422000       1.61706200       1.90029000
H       -1.94820900      -0.06071300      -2.92059200
H       -0.45202900       0.39026400      -2.11291100
H       -1.99201600       0.96355800      -1.48999200
H       -1.11474500      -1.97232900      -1.56223600
H       -2.66628500      -1.39662300      -0.98944800
H       -1.47004000      -1.73925900       0.98359300
H       -1.37972200      -0.00206800       0.76664300
H        0.82689800      -1.97878600      -0.01927500
H        0.74529400      -1.14546900       1.52357400
H        1.56673200      -0.00661200      -1.17241900
H        2.12080000       2.00766500      -0.06665600
H        0.84694100       0.76740800       2.46378400
H        0.46176400       2.39856000       1.92374600
H        2.09834500       2.01309800       2.41816700
