17
Properties=species:S:1:pos:R:3 pbc="F F F"
C       -0.47924000       0.52676100      -1.97695200
N       -0.46775900       0.97356500      -0.58944600
C        0.04397900       0.04796700       0.43107500
C       -0.12226100       0.63314100       1.82581800
C       -0.08433300      -1.45247400       0.27921300
C        1.26175100      -0.77906400       0.15660100
H       -0.85940400       1.33525000      -2.60684200
H       -1.11398000      -0.35990800      -2.15536300
H        0.53176600       0.28666800      -2.31343200
H       -1.40155700       1.29039800      -0.31813300
H       -1.17320200       0.81699800       2.05154300
H        0.40129100       1.58405500       1.91664400
H        0.26973600      -0.04139700       2.58263300
H       -0.51881500      -1.85655000      -0.62789100
H       -0.26298600      -2.04830900       1.16840400
H        1.71106000      -0.74683500      -0.82958600
H        1.97103200      -0.93330800       0.96361300
