13
Properties=species:S:1:pos:R:3 pbc="F F F"
O       -2.38955000      -0.00089600      -0.89296800
C       -1.21241600       0.16790900      -0.59580100
N       -0.35540600      -0.90371300      -0.42177400
C        1.01581900      -0.86677300      -0.11844300
C        1.69021300       0.07126200       0.57811200
C        1.13536700       1.28624300       1.25785100
H       -0.74985800       1.18343800      -0.47329600
H       -0.73937500      -1.81318600      -0.67037000
H        1.55909800      -1.73766300      -0.49189800
H        2.76196700      -0.07987800       0.67390700
H        0.10479300       1.13949300       1.57784300
H        1.16247100       2.16748100       0.61148500
H        1.73125000       1.52162100       2.13817800
