15
Properties=species:S:1:pos:R:3 pbc="F F F"
C       -2.66079500      -0.53090500      -0.76864800
C       -1.23513100      -0.31199400      -0.38736900
C       -0.38066200      -1.31372600      -0.09140200
C        1.01924500      -1.18756700       0.28854800
C        1.75745000      -0.06749300       0.49409000
C        1.32917100       1.28930500       0.38939100
C        1.10277700       2.48280100       0.34443300
H       -2.86024100      -0.14325800      -1.77006000
H       -3.33108500       0.00020800      -0.08965400
H       -2.92497000      -1.58608100      -0.75282200
H       -0.89198400       0.71992500      -0.35813900
H       -0.75252700      -2.33766200      -0.13931300
H        1.53694800      -2.13586600       0.43146200
H        2.80435800      -0.18710700       0.77965600
H        0.82717700       3.50731600       0.28462000
