14
Properties=species:S:1:pos:R:3 pbc="F F F"
C       -1.45958100       0.61629200       0.09769500
C        0.06974600       0.55972500       0.06388600
C        0.58488400      -0.89305100      -0.12008400
O        0.20877300      -1.72222700       0.96885700
N        0.58573300       1.45681200      -0.99140200
H       -1.84737700      -0.03882500       0.87388700
H       -1.88086400       0.29585600      -0.85375600
H       -1.80544700       1.62864100       0.29407600
H        0.45463100       0.93402700       1.03305900
H        1.69157000      -0.88427200      -0.22821300
H        0.17302100      -1.34420100      -1.03482700
H        0.47703700      -1.30992600       1.80044900
H        0.19698700       1.20331000      -1.89662200
H        1.59984100       1.39772800      -1.04807800
