14
Properties=species:S:1:pos:R:3 pbc="F F F"
O       -1.36347600      -1.37987000      -0.46029600
C       -1.39653400      -0.07716500      -1.01530700
C       -0.90642700       0.93880700       0.02290100
O        0.52157700       0.96910300       0.10481200
C        1.11810200      -0.06081600       0.75593000
C        2.45548900      -0.17610500       0.82627600
H       -1.57303000      -2.03467000      -1.13893400
H       -2.43334000       0.17634400      -1.32754800
H       -0.76765100      -0.03090100      -1.92556100
H       -1.33833400       0.71177900       1.01336300
H       -1.22603400       1.95324000      -0.26266600
H        0.44333700      -0.78386800       1.23135900
H        3.10531500       0.54506900       0.35109100
H        2.90114000      -0.99918600       1.36396600
