18
Properties=species:S:1:pos:R:3 pbc="F F F"
C       -0.89876400      -2.57793200      -0.29216300
C       -1.27359500      -1.35782800       0.54045700
C       -0.74364600      -0.03337900      -0.02761100
C        0.78236000       0.10594500       0.05171000
C        1.29533200       1.43905800      -0.51237900
O        0.91823800       2.54280000       0.29484000
H       -1.32920400      -3.48082400       0.13566200
H        0.17964900      -2.71338000      -0.33768800
H       -1.26591400      -2.48173100      -1.31207000
H       -0.90811300      -1.48738900       1.56458600
H       -2.36503000      -1.29631200       0.60862800
H       -1.20973100       0.79358700       0.52282500
H       -1.06662900       0.07345700      -1.06926300
H        1.25282100      -0.71416200      -0.50051600
H        1.10533100       0.00304500       1.09247300
H        0.92258200       1.58064100      -1.55035400
H        2.39492900       1.43210600      -0.56231700
H       -0.02671800       2.49338000       0.48923000
