19
Properties=species:S:1:pos:R:3 pbc="F F F"
C       -0.74374200       1.76786500       2.18202000
C       -1.74757400       1.38821700       1.10318700
C       -1.23204700       0.46758400       0.02763100
C        0.00558000      -0.04133300      -0.05542200
C        0.44614400      -0.94900700      -1.14805100
C        1.85805200      -0.87295300      -1.66651600
C        1.43054300      -2.05150400      -0.85892300
H       -1.20371400       2.43266300       2.91049400
H        0.11675300       2.28142600       1.75822300
H       -0.38247600       0.88949100       2.71289900
H       -2.13266100       2.30179000       0.62861000
H       -2.62508300       0.92195100       1.57298100
H       -1.95889400       0.20681200      -0.74345800
H        0.75118600       0.20204400       0.70033100
H       -0.32040500      -1.17911400      -1.88974100
H        2.53161700      -0.15920000      -1.20342400
H        2.01360200      -1.01498300      -2.73120900
H        1.81401800      -2.13774800       0.15247400
H        1.29431800      -2.99834600      -1.37173900
