19
Properties=species:S:1:pos:R:3 pbc="F F F"
C       -1.74936700      -1.53240800      -0.51341100
C       -1.05179100      -1.28674600       0.60022500
C        0.17321400      -0.45152700       0.72151700
C        0.18077100       1.04127400       0.42048400
C        0.91929600       0.09041400      -0.47527800
C        2.43288000       0.06771700      -0.49372700
C       -1.05784000       1.76549600      -0.05502100
H       -2.63611300      -2.15299300      -0.48639400
H       -1.45626000      -1.13245400      -1.47675400
H       -1.39402000      -1.73377800       1.53528500
H        0.79741600      -0.72677300       1.57424300
H        0.80354000       1.62785500       1.09997000
H        0.45593100      -0.10521000      -1.44328000
H        2.84098100       0.26771900       0.49518600
H        2.82822600       0.82007400      -1.17636400
H        2.80813700      -0.90178000      -0.82097300
H       -1.67659900       1.12473200      -0.67859900
H       -0.79207300       2.64705200      -0.63896700
H       -1.66214600       2.10023700       0.78790600
