17
Properties=species:S:1:pos:R:3 pbc="F F F"
C        0.23907700       2.35258800      -0.77139800
C       -0.36711800       1.21893400       0.04969300
C        0.62061600       0.08826200       0.31021100
C        0.80219400      -1.01392100      -0.70556400
C        0.15821600      -1.32189800       0.60695000
N       -1.25049600      -1.68709300       0.64199000
H       -0.48733900       3.14632100      -0.93433900
H        0.57155700       1.99594200      -1.74388900
H        1.09944400       2.78431000      -0.26389500
H       -1.24823600       0.82506600      -0.46755500
H       -0.72557300       1.61931200       1.00666800
H        1.53398700       0.40480600       0.81782600
H        1.80845900      -1.37793800      -0.89097100
H        0.16575400      -0.99022700      -1.58446900
H        0.75997500      -1.88550700       1.32848500
H       -1.73872500      -1.33650500      -0.17714400
H       -1.70374700      -1.31971700       1.47600800
