17
Properties=species:S:1:pos:R:3 pbc="F F F"
C       -0.99513000       1.05921800      -1.60358700
C       -1.62303900       0.54712200      -0.54529200
C       -1.06455800      -0.48734800       0.40009000
C        0.40729600      -0.79812900       0.22161100
C        0.80576100      -1.96708700      -0.31793200
C        1.40945500       0.18156900       0.66838900
C        1.14741400       1.36791100       1.23389400
H       -1.48051600       1.78946800      -2.23968800
H        0.01646500       0.76797100      -1.85825900
H       -2.64408800       0.86397300      -0.32660800
H       -1.64771800      -1.41053200       0.28383200
H       -1.24780000      -0.15272400       1.43042800
H        0.08977800      -2.70836100      -0.65091200
H        1.85773900      -2.19763800      -0.43981800
H        2.44920700      -0.11231800       0.52022000
H        0.13357600       1.71184800       1.39996000
H        1.95015400       2.02877300       1.53780700
