17
Properties=species:S:1:pos:R:3 pbc="F F F"
N       -1.72392800       0.58787300       0.89183800
C       -0.27801400       0.45545700       0.87869700
C        0.50051000       1.25212700      -0.13166600
C        0.39638900      -0.24946200      -0.27433200
C        1.64148100      -1.07232200       0.02826200
C       -0.46070700      -0.80023000      -1.40359700
H       -2.01125800       1.41687300       1.40739400
H       -2.16391200      -0.22589400       1.31554300
H        0.20451400       0.33615300       1.86577800
H        1.45302500       1.67303400       0.17626700
H       -0.06447200       1.86480700      -0.82568800
H        2.21020300      -0.63910700       0.84868100
H        2.29650300      -1.12741500      -0.84123000
H        1.37992600      -2.09405300       0.30417200
H       -1.34407000      -0.18541700      -1.55327600
H       -0.78852400      -1.81671700      -1.18517900
H        0.09761000      -0.83078700      -2.33951600
