14
Properties=species:S:1:pos:R:3 pbc="F F F"
C       -0.35549700      -0.03506900       1.96872700
C       -0.70903200      -0.00581600       0.49544100
C        0.13615200       0.75278200      -0.51571700
C        0.14649200      -0.74590100      -0.52062400
O       -0.48806400      -1.45475600      -1.56754400
O        1.27316800       1.47623100      -0.09409400
H       -0.69499400       0.86755400       2.47681200
H        0.72055900      -0.11772100       2.11924300
H       -0.82078700      -0.88731300       2.46238800
H       -1.78199600      -0.00140600       0.29451500
H       -0.38989800       1.27959700      -1.31818400
H        1.02863000      -1.27902500      -0.15850200
H       -1.24629100      -0.95491300      -1.89619000
H        1.59525500       1.12544800       0.74605400
