13
Properties=species:S:1:pos:R:3 pbc="F F F"
C        0.93118800      -0.43539000      -0.40194000
C        0.45667500      -0.36165800       1.04561500
C       -0.98941000      -0.28690700       1.40070000
N       -0.13464500       0.89539400       1.50783900
C        0.03652300       0.33168200      -1.37438700
O       -0.31500100      -0.10603200      -2.44096500
H        1.01607100      -1.47841200      -0.72232900
H        1.94032200      -0.00626800      -0.47107400
H        1.11442800      -0.87283300       1.76066000
H       -1.32777000      -0.74575800       2.33127600
H       -1.73795000      -0.24942400       0.60817300
H        0.11221200       1.07928500       2.48254400
H       -0.26465400       1.36754800      -1.03633500
