15
Properties=species:S:1:pos:R:3 pbc="F F F"
C       -1.95865800       0.06477200       1.39611500
C       -0.44331200       0.14771700       1.29127600
C        0.09473900      -0.43966200      -0.04151300
C       -0.40532100       0.30835900      -1.21143100
C       -0.83707100       0.90907200      -2.16590400
C        1.56992900      -0.48848300      -0.03827300
C        2.77541800      -0.55028300      -0.00340100
H       -2.30102900       0.48694600       2.33844300
H       -2.29909800      -0.96809800       1.34762100
H       -2.43671700       0.61240200       0.58702500
H        0.01676900      -0.39786800       2.12105000
H       -0.12021000       1.18836300       1.38250800
H       -0.27236900      -1.48070200      -0.13204900
H       -1.19862700       1.44320500      -3.00996400
H        3.83693700      -0.59320100       0.00415400
