13
Properties=species:S:1:pos:R:3 pbc="F F F"
C       -0.09720900       1.40122200       1.20195300
O       -0.78591500       0.46432800       0.40038800
C       -0.08787900      -0.42406300      -0.36345300
C       -0.77297600      -1.31049600      -1.11893200
C        1.41527000      -0.37689800      -0.32943000
H       -0.84790900       2.00469400       1.72092800
H        0.53432800       2.07125700       0.59633500
H        0.53839800       0.90677800       1.95445200
H       -1.85321000      -1.31587000      -1.11840000
H       -0.24850500      -2.02479900      -1.73473200
H        1.79765300      -0.55173300       0.67700400
H        1.79170200       0.59347600      -0.65545000
H        1.83163200      -1.13701800      -0.98407200
