21
Properties=species:S:1:pos:R:3 pbc="F F F"
C       -1.29131500       2.08678000       0.99144700
C       -0.43316200       1.53387800       0.13413100
C        0.34833500       0.26184800       0.39906600
C        0.04021300      -0.81511700      -0.69261200
C        0.79692900      -2.12617300      -0.44051500
C       -1.46797900      -1.08377700      -0.78491500
C        1.84966200       0.59259700       0.47394700
H       -1.81090600       3.00723500       0.75330400
H       -1.50043900       1.63453800       1.95423500
H       -0.24661400       2.02103000      -0.82412200
H        0.03614700      -0.13980100       1.37539400
H        0.37282200      -0.41238500      -1.66335600
H        0.56131600      -2.53287100       0.54112200
H        1.87374100      -1.98559400      -0.49767300
H        0.52072800      -2.87158700      -1.18373300
H       -1.85316700      -1.47411200       0.15505200
H       -1.68198600      -1.81470200      -1.56225600
H       -2.01425800      -0.17279400      -1.01782300
H        2.22626300       0.92885700      -0.49043400
H        2.43134500      -0.27378400       0.78048600
H        2.02890400       1.38575400       1.19650800
