14
Properties=species:S:1:pos:R:3 pbc="F F F"
O       -0.69396300      -0.17612500      -1.86001900
C       -0.57323000      -0.33969200      -0.45793500
C        0.45678600      -1.39782600       0.01905000
C        1.12917900      -0.33675400       0.90638300
C        0.25733900       0.76040400       0.24359900
O       -0.44185200       1.62049400       1.12912500
H       -1.11634600      -0.95313600      -2.24912900
H       -1.57768800      -0.48743200      -0.00048900
H        1.10280100      -1.75072800      -0.78637400
H        0.05257400      -2.26870500       0.54207000
H        2.21062300      -0.23707000       0.78899900
H        0.91380700      -0.46947900       1.96935400
H        0.81271300       1.39317000      -0.46408600
H       -0.93241100       1.10163400       1.78021900
