17
Properties=species:S:1:pos:R:3 pbc="F F F"
C       -1.49228400      -0.21485000       0.69533800
C        0.02768800      -0.31674500       0.50759100
O        0.37575100      -0.56270100      -0.87317800
C        0.08753700      -1.86589800      -1.33749500
C        0.75761600       0.96609200       0.93678300
N        0.31472300       2.10596200       0.13359200
H       -1.99446800      -1.12632400       0.37680800
H       -1.89551300       0.61503600       0.12061700
H       -1.73375400      -0.04832200       1.74355100
H        0.41131900      -1.16825700       1.12026400
H        0.52640800      -1.97468700      -2.33493300
H       -0.99971600      -2.05126000      -1.41234400
H        0.51788500      -2.63658500      -0.67179700
H        1.85165100       0.80044900       0.85187100
H        0.55733500       1.16634600       2.00142200
H        0.35566000       1.85800100      -0.85302100
H        0.91078200       2.91387800       0.29453700
