15
Properties=species:S:1:pos:R:3 pbc="F F F"
N       -1.26138400       0.36737900       1.14614300
C        0.19365400       0.30004300       1.19775700
C        0.98774900       1.10425900       0.21175500
C        0.94906000      -0.39392800       0.09438400
C        0.24118800      -1.06770800      -1.08261500
O       -0.80819800      -0.28528600      -1.60978300
H       -1.60457400       1.19666700       1.62769000
H       -1.68037500      -0.45278400       1.58085800
H        0.62579000       0.20993600       2.20924200
H        1.90881000       1.56908000       0.55067100
H        0.43720300       1.66716300      -0.53410100
H        1.85613400      -0.91348000       0.41267600
H       -0.14199900      -2.06508800      -0.76155400
H        0.96429500      -1.25911800      -1.89447200
H       -1.29991800       0.10225500      -0.86343300
