15
Properties=species:S:1:pos:R:3 pbc="F F F"
C       -3.28537500      -1.08758700      -0.90868400
C       -2.07808700      -1.05992700      -0.88731000
C       -0.61550200      -1.02391700      -0.85902100
C       -0.07329800       0.07750000       0.06396000
C        1.46215400       0.09985900       0.08188900
C        2.00102700       1.14200600       0.95656600
C        2.45349900       1.99960300       1.67678900
H       -4.34698600      -1.11416600      -0.92944200
H       -0.24086400      -0.87411300      -1.88067600
H       -0.23919000      -2.00337400      -0.53400400
H       -0.45038700      -0.07643900       1.07864200
H       -0.45113300       1.04952500      -0.26451900
H        1.84548100       0.25452900      -0.93575000
H        1.84616200      -0.87541000       0.41029800
H        2.85041100       2.75423000       2.31032200
