15
Properties=species:S:1:pos:R:3 pbc="F F F"
C       -0.60099500       1.86290100       0.84625300
C       -1.06228800       0.41483000       0.95026700
C       -0.57541800      -0.44702100      -0.21259400
O        0.84652800      -0.51915600      -0.19294500
C        1.38212100      -1.30456200      -1.23568200
H       -0.93460800       2.44027700       1.70624700
H       -0.99650500       2.33672900      -0.05065600
H        0.48376700       1.91519100       0.80130300
H       -2.15700400       0.37562300       0.98832300
H       -0.70321100      -0.01550200       1.89061000
H       -0.91959100      -0.03041000      -1.18498300
H       -1.00552000      -1.47135800      -0.14209800
H        2.47239600      -1.30423900      -1.14082700
H        1.10871900      -0.90181700      -2.22895300
H        1.01880800      -2.34813400      -1.18486900
