17
Properties=species:S:1:pos:R:3 pbc="F F F"
C        1.69231800      -1.05152300      -1.67396200
C        1.05268800       0.23127600      -2.09545900
C        0.09254600       0.91982600      -1.44034200
C       -0.53240700       0.62013200      -0.15902200
C        0.01652200      -0.07063900       0.87139100
C       -0.63784800      -0.33376300       2.14883500
C       -1.90223200      -0.02306100       2.48076600
H        1.98810400      -1.63305500      -2.54610800
H        1.02249000      -1.65814400      -1.06664600
H        2.59763500      -0.87376600      -1.08731700
H        1.38447100       0.62857000      -3.05478300
H       -0.30685000       1.80223000      -1.94241300
H       -1.52646400       1.04800500      -0.02054900
H        1.03653100      -0.43814700       0.78438100
H       -0.02016000      -0.84042500       2.89076700
H       -2.57071200       0.47632900       1.78907100
H       -2.29456700      -0.26508800       3.46035900
