19
Properties=species:S:1:pos:R:3 pbc="F F F"
C       -1.12098900      -0.80157100       2.49317400
C       -2.04949700      -0.06716400       1.53702100
C       -1.44069900       0.35180100       0.22788200
C       -0.17298300       0.12865200      -0.17183100
C        0.33511100       0.57978900      -1.46144100
C        1.58557800       0.40480800      -1.93653200
C        2.71726100      -0.28886800      -1.25005600
H       -1.64438100      -1.04854200       3.41456200
H       -0.25856500      -0.19127200       2.75240700
H       -0.75714800      -1.72934000       2.05686400
H       -2.45241000       0.82526400       2.03678000
H       -2.92857200      -0.69438200       1.33090400
H       -2.11323400       0.88836300      -0.44384300
H        0.51264300      -0.40516600       0.48326700
H       -0.37783000       1.11185400      -2.09235200
H        1.81718500       0.80505700      -2.92368900
H        2.43324100      -0.68879600      -0.28046600
H        3.55572900       0.39518500      -1.10224400
H        3.09065300      -1.11290900      -1.86149600
