14
Properties=species:S:1:pos:R:3 pbc="F F F"
O       -1.00756300       2.01953700       0.51497900
C       -1.37310700       0.66888400       0.74156800
C       -0.81960300      -0.20219700      -0.38702100
C        0.70381600      -0.21189200      -0.40300000
C        1.46852200      -1.32436900      -1.00508100
O        1.34350900      -1.20055300       0.40797800
H       -1.31843200       2.57115500       1.24409600
H       -2.48015100       0.57800700       0.78857200
H       -0.98339400       0.32844500       1.72193600
H       -1.19448400       0.17532600      -1.34619400
H       -1.19352000      -1.22501200      -0.27898300
H        1.17969100       0.77931500      -0.35210500
H        2.48023000      -1.15724800      -1.39708100
H        0.94471900      -2.18441400      -1.44269600
