14
Properties=species:S:1:pos:R:3 pbc="F F F"
C       -2.35108200       0.93682400      -0.32247300
C       -0.85696600       0.90437700      -0.25118500
C       -0.14641100      -0.13066900       0.21264600
C        1.35686200      -0.14334300       0.32052200
N        1.91264800      -1.44916100      -0.04626000
H       -2.68894500       1.08587400      -1.34940500
H       -2.75090100       1.76519900       0.26513500
H       -2.78917200       0.01353000       0.04939300
H       -0.33809300       1.79404000      -0.61012400
H       -0.66645800      -1.02220700       0.56485900
H        1.64340700       0.13710100       1.36162200
H        1.79447000       0.62946600      -0.32809800
H        1.47705800      -2.19041300       0.49632400
H        2.91568200      -1.47159600       0.11704600
