19
Properties=species:S:1:pos:R:3 pbc="F F F"
C       -2.77488000       0.40383400      -1.53189400
C       -1.80835200       0.71668200      -0.39179300
C       -1.22531400      -0.52708500       0.22986600
C        0.06507900      -0.75469000       0.52001600
C        1.20862900       0.16370800       0.27532500
C        2.33736600       0.22155200       1.27158800
C        2.56028600      -0.41046700      -0.06022700
H       -3.20278000       1.31862300      -1.93747500
H       -3.59272400      -0.22712600      -1.18907000
H       -2.26962100      -0.11776800      -2.34173200
H       -2.34890200       1.28251200       0.38073600
H       -1.01524700       1.37727000      -0.75413400
H       -1.94777600      -1.30652400       0.47281500
H        0.32691500      -1.70653400       0.98369100
H        0.96390100       1.10780200      -0.21158800
H        2.28419700      -0.42924300       2.13835400
H        2.79506300       1.18742200       1.46039200
H        2.65881700      -1.49061700      -0.09770300
H        3.17127500       0.12298900      -0.78156800
