12
Properties=species:S:1:pos:R:3 pbc="F F F"
C       -2.27085100       0.72468900       1.23035300
O       -0.87839500       0.93170000       1.04955400
C       -0.24591200       0.14165000       0.17663800
C        1.09622800       0.22285100      -0.03319200
C        1.74800900      -0.65737300      -1.01176700
O        1.15962700      -1.48955500      -1.68208800
H       -2.68029400       1.60365100       1.73468600
H       -2.45196100      -0.16180300       1.85617200
H       -2.77814200       0.58636300       0.26586500
H       -0.85977200      -0.57989700      -0.38121200
H        1.68885000       0.94109700       0.52684500
H        2.86662600      -0.51747800      -1.11427800
