19
Properties=species:S:1:pos:R:3 pbc="F F F"
C       -0.61012900      -2.20771300       0.93425200
C       -1.02523400      -0.74436200       0.82555100
C       -0.92755000      -0.21156200      -0.59635400
C       -0.89473900       1.25968200      -0.86368600
C        0.33721000       0.43868000      -1.12947500
C        1.57766800       0.56173900      -0.31640300
C        1.73835900       1.29404900       0.78984600
H       -0.71503100      -2.56449700       1.95674400
H        0.42738900      -2.34241200       0.63617200
H       -1.22481100      -2.83855500       0.29450800
H       -0.40497500      -0.13631000       1.49035100
H       -2.05761700      -0.63558400       1.18096400
H       -1.46746300      -0.81323100      -1.33158800
H       -0.87724600       1.93070300      -0.01090300
H       -1.43978500       1.64140900      -1.72218900
H        0.53520100       0.22240800      -2.18155400
H        2.42584300      -0.01661700      -0.68638900
H        0.93920700       1.90157600       1.19758100
H        2.68578600       1.30803400       1.31391000
