19
Properties=species:S:1:pos:R:3 pbc="F F F"
C        1.15309700       2.84460100      -0.15297000
C        0.48552700       1.54200900       0.15791100
C        0.79577000       0.38204300      -0.43313200
C        0.14932800      -0.96468700      -0.11922600
C       -1.35990600      -0.86568000      -0.00982000
C       -2.20979700      -1.52418700      -0.79722900
C        0.74580200      -1.56467300       1.17176900
H        1.63073000       3.25921700       0.73666200
H        0.42529900       3.58309200      -0.49336400
H        1.91094000       2.73166700      -0.92498200
H       -0.29837100       1.57376800       0.91447700
H        1.58815800       0.36891200      -1.18220000
H        0.38765500      -1.64977800      -0.94750700
H       -1.74952500      -0.21490600       0.77368700
H       -1.85856400      -2.18120200      -1.58511000
H       -3.28202000      -1.42333200      -0.67843700
H        0.53309200      -0.92947600       2.02919400
H        1.82587700      -1.66453100       1.08559000
H        0.32780200      -2.54998500       1.36816700
