13
Properties=species:S:1:pos:R:3 pbc="F F F"
C       -0.83855700       2.17584700       0.24198300
O       -1.61311600       0.98220800       0.40402400
N       -1.00128300      -0.22568500       0.23678300
C        0.26716400      -0.26833100      -0.07072300
C        0.90641000      -1.56940300      -0.24476100
C        2.20136700      -1.72947900      -0.56024300
H       -1.52118200       3.00953400       0.42470600
H       -0.43288300       2.25678700      -0.77730700
H       -0.01159900       2.21955200       0.96600800
H        0.89872800       0.62188800      -0.21044500
H        0.27468600      -2.44602300      -0.10463300
H        2.85461700      -0.87663900      -0.70693400
H        2.63323500      -2.71476200      -0.67861500
