14
Properties=species:S:1:pos:R:3 pbc="F F F"
C       -0.93893000      -0.55133600      -2.25507800
N       -1.27208900      -0.96367200      -0.89461900
C       -0.78208000      -0.08104900       0.16735400
C        0.76357900      -0.08963600       0.32103200
C        1.21379000       0.76338500       1.41705200
N        1.56052000       1.43728100       2.28355800
H       -1.40173800      -1.24009400      -2.96525000
H        0.14643800      -0.53601100      -2.46146800
H       -1.32677600       0.45191200      -2.44714300
H       -0.97027700      -1.92637000      -0.72948600
H       -1.23698800      -0.39252800       1.11826900
H       -1.12237300       0.94237400      -0.03477800
H        1.23804700       0.24951700      -0.60711700
H        1.11649400      -1.11225400       0.50224200
