15
Properties=species:S:1:pos:R:3 pbc="F F F"
C       -2.37615700      -0.00841200      -0.47817400
C       -1.04712500      -0.00362300      -0.21075500
C       -0.29185000       1.24354000      -0.06099700
C        1.02610400       1.25487600       0.20436300
C        1.83576800       0.00642900       0.36905900
C        1.03362100      -1.24765100       0.21045100
C       -0.28439200      -1.24548900      -0.05485700
H       -2.92752700       0.91676300      -0.59046500
H       -2.92162400      -0.93764200      -0.58580800
H       -0.83368000       2.18164800      -0.17129600
H        1.55412600       2.20246500       0.30865400
H        2.33229400       0.01038000       1.35463300
H        2.67373600       0.00725700      -0.34912100
H        1.56739700      -2.19149500       0.31937600
H       -0.82053800      -2.18739200      -0.16050900
