15
Properties=species:S:1:pos:R:3 pbc="F F F"
C       -2.43872800      -0.22005200      -0.65679400
C       -1.13746800      -0.21677600      -0.30796900
C       -0.29448900      -1.38956200      -0.09751200
C        0.96326300      -1.01946000       0.24479800
C        1.07701100       0.43482700       0.29445800
C        2.18339100       1.14007400       0.60029800
C       -0.27922800       1.00592400      -0.06157600
H       -2.97219700      -1.14979300      -0.81178100
H       -2.98867800       0.70288000      -0.79171300
H       -0.64514300      -2.41124900      -0.20413400
H        1.78476200      -1.69627000       0.45747300
H        3.11345400       0.64101000       0.84295700
H        2.17642300       2.22276200       0.61310900
H       -0.22887400       1.65214500      -0.94605500
H       -0.68225300       1.62866600       0.74592300
