12
Properties=species:S:1:pos:R:3 pbc="F F F"
O        0.10188400       0.42347200       2.18062700
C       -0.31169000       0.51104200       0.84067900
C        0.56419400       1.24051000      -0.13430700
C        0.48531600      -0.27614800      -0.15779800
C       -0.17852200      -0.94007900      -1.26132900
C       -0.72764400      -1.50784600      -2.17763600
H       -0.13421800       1.22853500       2.66015000
H       -1.40386800       0.57366700       0.70633300
H        1.48822300       1.67411400       0.23336700
H        0.09578100       1.77976900      -0.95132100
H        1.35673400      -0.80295800       0.23234700
H       -1.20764800      -2.00577600      -2.98354600
