19
Properties=species:S:1:pos:R:3 pbc="F F F"
C       -1.07646500       0.69526600       1.56983600
C       -1.21806400       0.92966000       0.08128300
C       -0.17543900       1.67799800      -0.69843100
C       -0.43231700       0.22542200      -0.99576900
C        0.63036800      -0.84638300      -0.82914900
C        0.60732200      -1.88757700       0.25095400
C        1.68349200      -0.84663000       0.23538600
H       -1.49110700       1.53868300       2.12245400
H       -0.03882100       0.58456000       1.87064900
H       -1.61865200      -0.19640800       1.88421800
H       -2.24790700       1.15187100      -0.21004100
H        0.74812500       1.92300400      -0.18379500
H       -0.49848900       2.42253200      -1.42075700
H       -1.01718700       0.05851800      -1.90438600
H        0.97819300      -1.21419800      -1.79784400
H        0.88056700      -2.90423500      -0.01510800
H       -0.15337800      -1.81598700       1.02013200
H        2.68403100      -1.15913500      -0.04783000
H        1.66125500      -0.07574300       0.99764000
