15
Properties=species:S:1:pos:R:3 pbc="F F F"
C        0.96692900       1.73938200      -0.11164200
C        0.39292900       0.33830700      -0.36427800
C       -1.09399200       0.37292400      -0.40213400
C       -2.30252500       0.39038000      -0.40347900
N        0.89917200      -0.60602900       0.65730800
C        0.54415300      -2.00177500       0.40236900
H        2.05392800       1.71339300      -0.13885600
H        0.66412800       2.11449900       0.86367300
H        0.62180700       2.44290900      -0.86537800
H        0.74441000      -0.01716300      -1.35281300
H       -3.36478200       0.40995000      -0.41772900
H        0.55856700      -0.32468000       1.58018200
H        0.97821900      -2.33150500      -0.54581200
H       -0.54399200      -2.17156300       0.35039600
H        0.94855200      -2.62893700       1.20016600
