21
Properties=species:S:1:pos:R:3 pbc="F F F"
C       -1.25550900      -1.34380500      -0.96400700
C       -0.58388500      -1.09129400       0.39059800
C        0.24869600       0.20123500       0.45348700
C       -0.15487000       1.46846500      -0.24307300
C        1.06272600       0.71569700      -0.70058800
C        2.44571200       1.28615500      -0.46483000
C       -1.62696400      -1.10254500       1.51980200
H       -0.52358800      -1.40544400      -1.76651400
H       -1.96296900      -0.55505000      -1.21138400
H       -1.80345700      -2.28366400      -0.94158800
H        0.10900100      -1.93100600       0.57658400
H        0.70252700       0.35137200       1.43580000
H       -0.00659900       2.40467200       0.28625200
H       -1.03215700       1.44992600      -0.88141500
H        0.95910000       0.18231000      -1.64655300
H        2.49899800       1.80330100       0.49072000
H        2.71631500       1.99737200      -1.24535500
H        3.20032300       0.49958700      -0.46194800
H       -2.36044000      -0.31087800       1.38218700
H       -1.15270700      -0.95489800       2.48815000
H       -2.15978200      -2.05104100       1.54671900
