18
Properties=species:S:1:pos:R:3 pbc="F F F"
C        2.09442600      -1.14667800       0.83724700
C        0.89269900      -0.92202300      -0.07488300
C       -0.23065800      -0.16371400       0.62176700
C       -0.29508900       1.33595000       0.57275900
C       -1.33382500       0.51823800      -0.14157900
C       -1.40397500       0.50656000      -1.65387400
H        2.87701900      -1.69907500       0.32078800
H        1.81214000      -1.71417300       1.72203200
H        2.51536700      -0.20045800       1.17076000
H        0.51871500      -1.89345800      -0.42153700
H        1.21185600      -0.37669600      -0.96809400
H       -0.53404900      -0.61101400       1.57096600
H        0.44266500       1.84972900      -0.03502500
H       -0.58855700       1.87046800       1.47145500
H       -2.31406800       0.48727900       0.33894300
H       -0.41977200       0.62595900      -2.10033200
H       -2.03367900       1.31877200      -2.01659600
H       -1.82909900      -0.42731900      -2.02198500
