16
Properties=species:S:1:pos:R:3 pbc="F F F"
C       -1.70540500      -0.10913100       1.29553600
C       -0.19004200      -0.22576700       1.18153100
C        0.40184800       0.62435900       0.03640500
C        0.19010900       0.08457400      -1.36819200
C       -0.39163200      -1.06580000      -1.70697300
O        1.81726400       0.79408300       0.23751400
H       -2.07861400      -0.72022700       2.11445800
H       -2.20133900      -0.43250800       0.38304300
H       -2.00139600       0.92076700       1.48596800
H        0.09583400      -1.27600300       1.05735500
H        0.26570900       0.10669500       2.11874400
H       -0.03049500       1.64369300       0.08823600
H        0.59907900       0.71534500      -2.15842600
H       -0.80718500      -1.74330900      -0.97020900
H       -0.47221700      -1.36404500      -2.74572500
H        2.26324400      -0.05247900       0.09660900
