16
Properties=species:S:1:pos:R:3 pbc="F F F"
C       -2.41036000       1.32819100      -0.91450400
O       -1.01340700       1.11878400      -0.90228800
C       -0.59166800       0.18836800       0.08852500
C        0.92555100       0.01631900      -0.00608900
C        1.46612500      -0.89562800       1.05910500
C        2.21104200      -1.97626100       0.82425400
H       -2.64299700       2.04444600      -1.70825900
H       -2.76651300       1.73395800       0.05047000
H       -2.95784500       0.38715500      -1.10740500
H       -1.11007900      -0.78352600      -0.05847500
H       -0.88362900       0.54968400       1.09962300
H        1.39440300       1.00424300       0.09281100
H        1.19522800      -0.35729400      -0.99818900
H        1.22127100      -0.62918800       2.08875700
H        2.47226900      -2.27472300      -0.18449700
H        2.58100000      -2.59095500       1.63572400
