16
Properties=species:S:1:pos:R:3 pbc="F F F"
N        0.08415900      -0.95769300      -2.45339500
C        0.14408400      -0.09848400      -1.26888700
C        0.04193800      -0.94052800       0.00642900
C        0.02239100      -0.16230000       1.31822100
C        0.59046700       1.20626700       1.47609000
N       -0.85865900       0.99649800       1.49792300
H        0.12995300      -0.40186600      -3.30329500
H       -0.77789000      -1.49694800      -2.46405300
H       -0.65859900       0.67054200      -1.27825000
H        1.09638200       0.45102200      -1.28641100
H        0.87797300      -1.64907800       0.03093200
H       -0.86381600      -1.55852400      -0.04892800
H        0.05902700      -0.81279000       2.20178400
H        1.00957800       1.71741000       0.60760300
H        1.03150200       1.50070400       2.42999100
H       -1.27588700       1.27816500       0.60781400
