16
Properties=species:S:1:pos:R:3 pbc="F F F"
C       -2.56830600      -0.18548900       0.84420500
C       -1.06053400      -0.16623600       1.01350500
O       -0.45661500       0.34229500      -0.17632200
C        0.95177400       0.44184200      -0.09444300
C        1.78813900      -0.75237800      -0.45205200
C        1.70886900       0.43791500      -1.37483400
H       -3.05156600      -0.57100900       1.73992200
H       -2.85715300      -0.81460100       0.00499800
H       -2.95043500       0.81564400       0.65654200
H       -0.67653300      -1.18696300       1.22759800
H       -0.77153700       0.46516200       1.88224900
H        1.30497800       1.09177500       0.72683600
H        1.27887000      -1.65560000      -0.76893300
H        2.72065300      -0.91802500       0.07927100
H        1.14833300       0.31176700      -2.29408200
H        2.58766300       1.06957200      -1.46210500
