19
Properties=species:S:1:pos:R:3 pbc="F F F"
C       -1.68156800       1.07822000      -0.34397800
C       -0.15940700       0.92644500      -0.24317000
C        0.27619100       0.72237400       1.22506800
C        1.78237100       0.80492800       1.43928100
C        0.34297400      -0.20798300      -1.17224600
C       -0.15431000      -1.53465300      -0.80775000
C       -0.55185000      -2.63981500      -0.52307300
H       -2.02817600       1.91640700       0.25772900
H       -2.18633000       0.18067400       0.00630600
H       -1.98718100       1.25358500      -1.37391600
H        0.30019900       1.85980300      -0.60840800
H       -0.09212600      -0.24459100       1.57992400
H       -0.21362600       1.48458400       1.84071100
H        2.30456400       0.00843900       0.91357800
H        2.02287300       0.71612500       2.49655800
H        2.17884000       1.75496800       1.08520800
H        1.44046000      -0.22989600      -1.17154400
H        0.03790900       0.01121500      -2.20429300
H       -0.90381300      -3.60840400      -0.26664800
