15
Properties=species:S:1:pos:R:3 pbc="F F F"
C       -1.33675600       0.08059500      -1.86283500
C       -1.72321600       0.24404600      -0.59707600
C       -0.82183100       0.31916100       0.60461200
C        0.66775500       0.33509000       0.29574800
C        1.46822000      -0.92002000       0.22951200
N        1.57160800      -0.03284200       1.38895300
H       -2.06234400       0.03337300      -2.66544900
H       -0.29214600      -0.01314300      -2.13459800
H       -2.78905000       0.32883300      -0.37962100
H       -1.04642200      -0.52482000       1.26925600
H       -1.08596200       1.21746500       1.18110000
H        1.00079300       1.16597900      -0.33973900
H        2.32709800      -0.96477600      -0.44357000
H        0.98734200      -1.88004100       0.42090100
H        2.43440600       0.51379100       1.34928700
