17
Properties=species:S:1:pos:R:3 pbc="F F F"
C       -0.96128000      -0.04150200      -1.88278400
C       -1.48150300       0.16473300      -0.46636100
C       -0.84455600       1.36371300       0.24800200
C        0.64247700       1.31617500       0.48141700
C        1.43617400       0.25107500       0.70406700
C        1.06136700      -1.12922700       0.74702400
C        0.89703100      -2.32968900       0.82637900
H       -1.46899700      -0.87674900      -2.36074800
H        0.10493000      -0.25388300      -1.87958300
H       -1.12465400       0.84485600      -2.49313900
H       -1.32400700      -0.74320900       0.12054500
H       -2.56483100       0.32631200      -0.49939100
H       -1.34234700       1.49882500       1.22019500
H       -1.06832400       2.27631700      -0.31749900
H        1.12555800       2.29386100       0.51123600
H        2.49948500       0.42754200       0.88154500
H        0.66492500      -3.36554100       0.87037100
