10
Properties=species:S:1:pos:R:3 pbc="F F F"
O       -2.05195700      -0.61550200      -0.16826700
C       -0.84032600      -0.20818500       0.32823600
O       -0.52400100      -0.43003900       1.47426200
C        0.01580600       0.58487300      -0.69014900
C        1.45143200       0.43293600      -0.47573300
C        2.63959000       0.29962100      -0.31033400
H       -2.17704600      -0.40015400      -1.10192700
H       -0.25441400       1.64727200      -0.60697000
H       -0.24090400       0.28109900      -1.71435300
H        3.68101700       0.18063600      -0.13682400
