19
Properties=species:S:1:pos:R:3 pbc="F F F"
C       -1.25684200       2.27145500      -0.72423900
C       -0.51633900       1.10697500      -1.38138300
C       -0.05412400       0.05891000      -0.40195500
C       -0.41532900      -1.23330400      -0.39607200
C        0.24729500      -2.01333300       0.70438600
C        1.14247500      -0.98259100       1.42349200
C        0.92653200       0.36440000       0.70509900
H       -1.56256600       3.00169900      -1.47112000
H       -0.62554700       2.77848400       0.00267100
H       -2.14925900       1.92552700      -0.20729800
H        0.35328500       1.50321900      -1.92307400
H       -1.16345900       0.64215800      -2.13241600
H       -1.11012100      -1.68539100      -1.09801900
H        0.83086600      -2.85571600       0.30965200
H       -0.49118100      -2.45692900       1.38565200
H        2.19336400      -1.28268300       1.38486700
H        0.88396200      -0.90890400       2.48341300
H        1.86397700       0.77183500       0.30458000
H        0.53467300       1.13162600       1.38512100
