12
Properties=species:S:1:pos:R:3 pbc="F F F"
C       -1.51448300      -0.91397100       0.72857000
C        0.00772900      -0.83788800       0.66053200
C        0.51292200       0.22448700      -0.32450900
O        1.19192700      -0.05170300      -1.31036800
N        0.20391800       1.54449600      -0.01630400
H       -1.82909800      -1.67597600       1.43813700
H       -1.93456400      -1.16641900      -0.24211800
H       -1.94811200       0.03380600       1.04479300
H        0.41117500      -1.80632300       0.36024800
H        0.40844000      -0.61978800       1.65673200
H       -0.50955900       1.75291800       0.66909000
H        0.40186800       2.24817200      -0.71736900
