19
Properties=species:S:1:pos:R:3 pbc="F F F"
C       -1.04882700      -1.98844300       0.91843100
C       -1.49508800      -0.55629900       0.64445600
C       -0.96385900      -0.01592000      -0.67696000
C       -0.75616100       1.45022600      -0.87780600
C        0.44150600       0.53115000      -0.82288000
C        1.37686800       0.59575700       0.32588400
C        2.69130400       0.37108000       0.23203300
H       -1.46091300      -2.34952500       1.85841100
H        0.03527600      -2.05218200       0.97793700
H       -1.37956700      -2.65863700       0.12742700
H       -1.17638300       0.09177800       1.46685200
H       -2.59131200      -0.51511700       0.62995800
H       -1.32396000      -0.56303900      -1.55107800
H       -0.91938500       2.10638200      -0.02834600
H       -1.01559100       1.88448000      -1.83889100
H        0.92101800       0.32652100      -1.78161300
H        0.94676900       0.85180900       1.29424000
H        3.15513000       0.11812200      -0.71422800
H        3.33446100       0.43410400       1.10037300
