15
Properties=species:S:1:pos:R:3 pbc="F F F"
C        1.38805200       0.04716500      -1.52125300
C        0.72805700      -0.52800200      -0.26390700
C       -0.80325100      -0.31362500      -0.28726000
C       -1.45692100       0.89418100       0.25902100
O       -1.46143100      -0.33148600       0.98245800
N        1.35040800       0.03420800       0.94599500
H        2.45643600      -0.15429400      -1.51962400
H        1.25184200       1.12632200      -1.57869400
H        0.96129800      -0.39265300      -2.42072800
H        0.90247300      -1.62165600      -0.25370100
H       -1.34403300      -0.87403100      -1.06992600
H       -2.43632300       1.21337300      -0.12015100
H       -0.85610400       1.69603300       0.70791800
H        0.79223200      -0.22912700       1.75760800
H        1.37515300       1.05014900       0.89606800
