17
Properties=species:S:1:pos:R:3 pbc="F F F"
C       -1.45948200       0.63554100       1.43687700
C       -0.39130100       1.10983200       0.46066500
C        0.35104200       0.00953500      -0.32379700
N        1.39986900       0.53294800      -1.20220600
C        0.62381300      -1.33557200       0.28757400
C       -0.37507300      -1.20563900      -0.82763500
H       -1.93362500       1.48765200       1.91970000
H       -1.03580500       0.00657900       2.21690200
H       -2.23724700       0.06626400       0.93253000
H        0.35104400       1.70516800       1.00704400
H       -0.84801800       1.79979800      -0.26024800
H        2.10272400       1.03751900      -0.66549600
H        1.00939500       1.17139400      -1.89248100
H        0.24371000      -1.54849400       1.28119300
H        1.56906300      -1.81243100       0.05282100
H       -1.42464200      -1.32880700      -0.58097800
H       -0.08966900      -1.59746000      -1.79765000
