14
Properties=species:S:1:pos:R:3 pbc="F F F"
C       -0.53387100      -1.58065100      -1.46308500
N       -1.05272100      -0.75324800      -0.39293500
C       -0.33144000       0.21408800       0.30061900
N       -0.92464600       1.03878500       1.12484800
C        1.13700100       0.26972700       0.11055900
C        1.90063500       1.19063800       0.70624800
H       -1.33342900      -2.22875100      -1.82246300
H        0.28892500      -2.22148700      -1.12260700
H       -0.16680300      -0.99271700      -2.31889400
H       -2.06404000      -0.68826800      -0.32419500
H       -1.93666500       0.89058900       1.16593000
H        1.59550500      -0.47154700      -0.54235100
H        1.44998200       1.93176900       1.35635000
H        2.97414700       1.21884700       0.55880100
