12
Properties=species:S:1:pos:R:3 pbc="F F F"
N       -2.06261300      -0.11870600       0.00783500
C       -0.75112500      -0.71390900       0.28782400
C        0.34567800       0.03175700      -0.45984400
C        1.15393700       1.09129800       0.17923800
O        1.68380700      -0.21278000      -0.02979500
H       -2.79588700      -0.61677500       0.50628900
H       -2.27029100      -0.15464000      -0.98750700
H       -0.71986600      -1.78810300       0.00913900
H       -0.56261900      -0.66580800       1.36817200
H        0.23010500       0.06361400      -1.55743400
H        0.98088700       1.35848600       1.22932400
H        1.61456600       1.88153600      -0.42777700
