13
Properties=species:S:1:pos:R:3 pbc="F F F"
C        0.37509000       1.94478000       0.91687200
C       -0.29070400       0.67375100       0.38368400
O       -1.47232200       0.44796100       0.56040000
C        0.60176200      -0.27089600      -0.40539300
C       -0.00957400      -1.26946200      -1.34146500
N        0.51218000      -1.70707300      -0.06365600
H       -0.33723100       2.55728800       1.46147300
H        0.78704800       2.53154700       0.09619600
H        1.20095600       1.69204300       1.58075500
H        1.60639900       0.09739200      -0.64655300
H        0.54597600      -1.54112700      -2.24263100
H       -1.09567400      -1.28785100      -1.43437700
H        1.42639400      -2.15251500      -0.17466000
