16
Properties=species:S:1:pos:R:3 pbc="F F F"
C       -2.21148300      -0.83290900       0.90063100
C       -0.69071300      -0.77646600       0.84856100
C       -0.17181400       0.21237800      -0.19916300
N        1.29704800       0.24260000      -0.20063300
C        1.86213600       1.14347100      -1.19991300
H       -2.54889400      -1.54150500       1.65418400
H       -2.62569400      -1.14066600      -0.05795200
H       -2.63139400       0.14108800       1.14538800
H       -0.29479600      -1.77556600       0.63236600
H       -0.29963500      -0.50004400       1.83303500
H       -0.54740800       1.22327300       0.02015900
H       -0.57885900      -0.05442900      -1.19900500
H        1.66252000      -0.70288100      -0.33650200
H        1.55569700       2.17325200      -0.99487100
H        1.54744100       0.90373000      -2.23242200
H        2.95293800       1.09670200      -1.16065300
