15
Properties=species:S:1:pos:R:3 pbc="F F F"
C       -1.62439700       0.43413200       1.03728500
O       -0.22496400       0.45363500       0.84918500
C        0.26125100      -0.41480600      -0.19341200
C       -0.06276500       0.14750200      -1.58763200
C        1.76638400      -0.58470800       0.01375100
H       -1.85422300       1.03180800       1.92543500
H       -1.99796300      -0.59503500       1.19242600
H       -2.16751200       0.86447800       0.17558900
H       -0.23797100      -1.40771900      -0.08425400
H        0.37637300       1.13382100      -1.71913400
H       -1.13626900       0.23438500      -1.74142700
H        0.33406700      -0.50432800      -2.36362100
H        2.27871400       0.37068800      -0.07497000
H        2.18549100      -1.26394600      -0.72593500
H        1.97616200      -0.98594300       1.00245600
