16
Properties=species:S:1:pos:R:3 pbc="F F F"
C       -2.35173400       0.66030000      -0.79550500
O       -0.94279800       0.60010100      -0.70257200
C       -0.44487300      -0.71917400      -0.49730000
C        1.08201900      -0.69705100      -0.48322400
C        1.66981100       0.26095700       0.56757700
O        1.28991700      -0.09673500       1.88735100
H       -2.63959100       1.70264900      -0.96135400
H       -2.83398100       0.29793100       0.13148800
H       -2.72699900       0.04522100      -1.63371300
H       -0.81549700      -1.39204600      -1.30064100
H       -0.84473700      -1.12786200       0.45814500
H        1.45000600      -0.40253500      -1.47216700
H        1.44873500      -1.71283300      -0.30208400
H        1.35187300       1.29951000       0.35148000
H        2.76936400       0.23521700       0.52408700
H        0.33254800      -0.00237500       1.97723300
