23
Properties=species:S:1:pos:R:3 pbc="F F F"
C       -1.29800000      -1.33435100      -0.61671100
C        0.19822900      -1.12542200      -0.34759900
C        0.48841900      -0.10847800       0.78459300
C        0.23833300       1.39775400       0.50807000
C        0.88121900       1.87946700      -0.79837100
C       -1.23929700       1.80721700       0.58083700
C        0.86063300      -2.47022600      -0.00706100
H       -1.76379500      -0.43729700      -1.01565400
H       -1.82522200      -1.61341400       0.29349600
H       -1.44439100      -2.13194600      -1.34301000
H        0.66239300      -0.75529600      -1.27514900
H        1.54669900      -0.21289600       1.05049100
H       -0.07476800      -0.39778700       1.67856000
H        0.74695500       1.92867900       1.33106100
H        0.38133500       1.45979200      -1.66873300
H        1.93112800       1.59702900      -0.84351800
H        0.82029900       2.96340600      -0.87417300
H       -1.80314800       1.45695500      -0.27992200
H       -1.32719400       2.89186200       0.60836000
H       -1.71034000       1.41030000       1.47774500
H        0.44940900      -2.88806600       0.90990800
H        1.93370300      -2.35337100       0.13177300
H        0.69971600      -3.19371800      -0.80378400
