16
Properties=species:S:1:pos:R:3 pbc="F F F"
C       -0.62896800      -1.31669700      -1.30002400
C        0.82238600      -1.06984800      -1.01744700
C        1.38085000      -0.33045900      -0.04818200
C        0.77082800       0.46443300       1.08222600
C       -0.74856000       0.64057700       1.14285000
O       -1.24891800       1.41651700       0.06374700
H       -0.74977500      -1.72865100      -2.29969500
H       -1.21875000      -0.40498000      -1.23186000
H       -1.05210600      -2.04015900      -0.59991700
H        1.51378300      -1.56954100      -1.69717500
H        2.47217000      -0.30062300      -0.03077200
H        1.23686400       1.46165100       1.08343100
H        1.09904100       0.00576600       2.02669300
H       -1.00411400       1.13410800       2.10659800
H       -1.27028800      -0.32738100       1.13656500
H       -0.61469800       2.10963700      -0.16038700
