16
Properties=species:S:1:pos:R:3 pbc="F F F"
C       -0.97431500       1.86437900      -0.80982600
C        0.13906100       0.99837500      -1.31581900
C        0.66523800      -0.11293000      -0.76131200
C        0.32196400      -0.81101500       0.48669400
C        1.01059700      -1.92308600       0.82173800
C       -0.77362200      -0.30542600       1.38511000
H       -0.74065000       2.30364300       0.16080300
H       -1.90565000       1.30823800      -0.69784200
H       -1.16068900       2.68078100      -1.50324700
H        0.57589700       1.32023700      -2.26126400
H        1.47940600      -0.58475800      -1.31305000
H        1.80323600      -2.30187400       0.18802000
H        0.79171900      -2.46768800       1.73130400
H       -0.56591900       0.70705900       1.73049700
H       -0.87900600      -0.94432000       2.25870800
H       -1.73188100      -0.28310000       0.86656200
