12
Properties=species:S:1:pos:R:3 pbc="F F F"
O       -1.60366900      -0.32321200      -0.84874300
C       -0.20238700      -0.25217400      -0.59163600
C        0.17682700       1.12958000      -0.21992600
C        0.46259900       2.27685300       0.02914400
C        0.16439000      -1.29581100       0.44559500
C        1.20931100      -1.21793000       1.26779700
H       -1.91056600       0.50545500      -1.24094600
H        0.34441800      -0.49915200      -1.54163400
H        0.71724000       3.27663600       0.28467400
H       -0.48211100      -2.17172500       0.46143100
H        1.86268600      -0.35272700       1.27513400
H        1.43325200      -2.01589500       1.96543700
