19
Properties=species:S:1:pos:R:3 pbc="F F F"
C       -1.50036300      -0.52005000      -1.52229200
C       -1.72186400      -0.88994400      -0.06130400
C       -1.06312700       0.07148700       0.94003200
C        0.46769800      -0.00201900       0.99771400
N        1.09950200       0.61909100      -0.17424400
C        2.55615200       0.65072000      -0.09764900
H       -2.01429700      -1.22119300      -2.17741800
H       -0.44282400      -0.53173400      -1.77370400
H       -1.88354500       0.47658600      -1.73312400
H       -1.35339800      -1.90602600       0.11800100
H       -2.79920900      -0.91578000       0.13960000
H       -1.45237100      -0.15606100       1.93880400
H       -1.37179400       1.09962900       0.71927900
H        0.79316500      -1.05162400       1.06293500
H        0.81219300       0.48169200       1.93927100
H        0.73507600       1.56611300      -0.30062600
H        2.95642800      -0.36724600      -0.08548300
H        2.93353100       1.16518000       0.80560000
H        2.95955500       1.16566100      -0.97243700
