17
Properties=species:S:1:pos:R:3 pbc="F F F"
C       -1.69574600       0.09140300      -0.18637700
C       -0.18907600      -0.02121600      -0.46060700
C        0.22359000       0.89878500      -1.59144000
C        0.80230300       0.48982000      -2.72007200
C        0.63640100       0.30724500       0.81545200
C        0.37591900      -0.61949700       1.91603200
C        0.17299900      -1.38741400       2.82675800
H       -2.26953600      -0.18139400      -1.06941100
H       -1.96755100       1.10866800       0.09029500
H       -1.98596500      -0.56901700       0.62765500
H        0.03596600      -1.05760600      -0.75238600
H        0.01978000       1.96067100      -1.44670600
H        1.01738400      -0.55768100      -2.89847600
H        1.07448400       1.19144600      -3.49930700
H        0.41558300       1.33054800       1.14635800
H        1.70668300       0.28010800       0.57469100
H       -0.00516800      -2.06050300       3.62881100
