21
Properties=species:S:1:pos:R:3 pbc="F F F"
C        0.82851200      -2.42276700      -0.70515700
C       -0.11425000      -1.67120500      -0.13579000
C        0.08885300      -0.36316200       0.60208700
C       -0.89425100       0.72139200       0.04440100
C       -0.55348300       1.13880200      -1.39076700
C       -0.98580400       1.94177200       0.96910000
C        1.54847800       0.09804300       0.63528000
H        0.57459400      -3.35387900      -1.19736100
H        1.87316300      -2.13726200      -0.70181700
H       -1.15025600      -2.01391200      -0.17735700
H       -0.22436200      -0.54524800       1.64730600
H       -1.89197600       0.25149200       0.02431500
H        0.39620200       1.66749400      -1.43455900
H       -1.32006300       1.80152700      -1.78799500
H       -0.48611500       0.26934300      -2.04081700
H       -0.04163400       2.48004600       1.01752500
H       -1.25609200       1.64514800       1.98091500
H       -1.74254100       2.63621500       0.60931500
H        1.93760300       0.26648000      -0.36625200
H        2.17531400      -0.64980900       1.11650000
H        1.64783400       1.02511600       1.19535700
