19
Properties=species:S:1:pos:R:3 pbc="F F F"
C       -1.50783800      -0.14763400       1.61509300
C       -1.16867000      -0.22004000       0.15140500
C       -1.49121800      -1.28824000      -0.59204700
C       -0.47924900       0.98941700      -0.44932600
C        1.05068800       0.91263000      -0.49871000
C        1.86021500       0.12619500       0.48616200
C        1.76816100      -0.32620100      -0.93733300
H       -1.93414400      -1.08132100       1.97351200
H       -2.23059200       0.64920200       1.79964100
H       -0.62618400       0.08298500       2.21344800
H       -1.98670400      -2.14673700      -0.15579800
H       -1.26780300      -1.32446100      -1.65092900
H       -0.76280400       1.88392900       0.11871700
H       -0.84556100       1.14613900      -1.47128600
H        1.50169900       1.85124100      -0.82875800
H        1.33782900      -0.46305700       1.23155500
H        2.80005300       0.55008100       0.82641800
H        1.17666100      -1.21255000      -1.14095500
H        2.64502500      -0.21221600      -1.56703000
