18
Properties=species:S:1:pos:R:3 pbc="F F F"
C        0.85476500      -0.83979500       1.53747100
C        0.47776100       0.24739800       0.50878300
N       -0.97537600       0.56235700       0.49732100
C       -1.87995800      -0.54578600       0.20084700
C        0.97940200      -0.12015200      -0.90048600
N        0.69496900       0.96417600      -1.84062600
H        1.93564100      -0.95183800       1.59761000
H        0.43618000      -1.80724000       1.26717200
H        0.48814600      -0.58097700       2.52908300
H        0.98076000       1.18422300       0.81115100
H       -1.23181600       0.97867000       1.39524900
H       -1.67626300      -0.95240500      -0.79259400
H       -2.90965900      -0.17872200       0.21008100
H       -1.81704400      -1.37813500       0.92387900
H        0.52631400      -1.08096700      -1.22304500
H        2.06593900      -0.29664800      -0.86200500
H       -0.27177000       1.26443500      -1.73299600
H        0.84459900       0.66388600      -2.80013900
