17
Properties=species:S:1:pos:R:3 pbc="F F F"
C       -1.28928600       2.71166600       0.49306200
C       -1.11293300       1.54578700      -0.47738700
C       -0.57447600       0.30690600       0.19070900
C        0.50693400      -0.36279900      -0.22432000
C        1.05180100      -1.59226000       0.45670400
N        1.47882900      -2.59715900      -0.52198300
H       -1.70901600       3.57677900      -0.01632900
H       -0.33671600       3.00661300       0.92723100
H       -1.95815200       2.44308100       1.30834900
H       -0.45299000       1.84293700      -1.29869000
H       -2.08733800       1.31582500      -0.93042600
H       -1.12401900      -0.04912100       1.06343200
H        1.05763400      -0.01019200      -1.09605200
H        0.30140500      -1.99226000       1.17130800
H        1.93040700      -1.31446400       1.06506300
H        0.70226500      -2.86797300      -1.11949800
H        1.83247500      -3.42691100      -0.05310900
