15
Properties=species:S:1:pos:R:3 pbc="F F F"
N       -0.98536000      -0.37703900       1.95360100
C       -1.35913100       0.11120100       0.62306200
C       -0.81096000      -0.78901300      -0.49072700
C        0.72300400      -0.79032200      -0.59522900
C        1.28888300       0.52331300      -0.90539900
C        1.77812500       1.59637900      -1.16814400
H       -1.38919200       0.21539200       2.67445800
H        0.02529600      -0.37134000       2.06635900
H       -1.01845400       1.15259500       0.45347700
H       -2.45685500       0.12851500       0.55854300
H       -1.23371200      -0.46730300      -1.44796600
H       -1.14688000      -1.81801800      -0.32823300
H        1.03331800      -1.49848300      -1.37514900
H        1.16400600      -1.15413300       0.34205300
H        2.20047100       2.54269900      -1.40012500
