12
Properties=species:S:1:pos:R:3 pbc="F F F"
O        0.79827700      -0.62789900      -1.22480400
C        0.32076100      -0.64278500       0.12662500
C       -1.15256300      -0.67675700       0.12500400
C       -2.35686400      -0.71159700       0.20524200
C        0.87821300       0.60555200       0.85361600
O        0.69611600       1.74132600       0.03695000
H        1.76248400      -0.70872800      -1.23379100
H        0.69084100      -1.56675100       0.63280500
H       -3.41923300      -0.73268600       0.22281700
H        1.96035800       0.45214300       1.06481500
H        0.37968300       0.76442800       1.82399600
H        0.53344900       1.43770300      -0.87073100
