15
Properties=species:S:1:pos:R:3 pbc="F F F"
C       -0.81628600       1.66263200       0.69240400
C       -1.81788500       0.74778500       0.06322300
C       -0.48730000       0.21084300       0.50219200
C        0.53794900      -0.20275100      -0.52906600
C        1.82611500      -0.82547700      -0.10926000
N        0.78640500      -1.63181800      -0.75138400
H       -1.01228100       2.01647100       1.69940100
H       -0.32123100       2.38524700       0.05127800
H       -1.99749400       0.85309900      -1.00187500
H       -2.69475700       0.47879500       0.64312400
H       -0.49290100      -0.40418400       1.40433800
H        0.53564200       0.39761100      -1.44635000
H        2.00518000      -0.99816500       0.95407000
H        2.72712000      -0.66894000      -0.70431200
H        0.29033000      -2.19540100      -0.05694500
