15
Properties=species:S:1:pos:R:3 pbc="F F F"
C       -1.93975500       1.39703200       0.24758800
N       -0.55603500       1.53289200      -0.20639700
C        0.40052800       0.64811600       0.48425900
C        0.19920600      -0.81590600       0.11152900
C        0.90982700      -1.43589600      -1.02657000
O        1.32463000      -1.67247200       0.31365100
H       -2.55294900       2.16037300      -0.23483300
H       -2.04882000       1.50919400       1.34071500
H       -2.34193000       0.41732600      -0.02573000
H       -0.25789300       2.50404000      -0.08767300
H        0.32885000       0.75856700       1.58705400
H        1.41418800       0.95726600       0.19956500
H       -0.75675100      -1.26741300       0.42635300
H        1.60895400      -0.84311300      -1.62998600
H        0.48271800      -2.30678500      -1.54073000
