21
Properties=species:S:1:pos:R:3 pbc="F F F"
C       -0.80007200      -0.03515200      -1.87570000
C       -0.73202500      -0.00428500      -0.35378600
C        0.20466800      -1.03120000       0.33758700
C       -0.45105600      -2.18901600       1.08062900
C        0.81100400       0.10419600       1.18809500
C        0.04272500       1.14986800       0.35024100
C        0.91309400       2.04345400      -0.52693900
H       -1.29256500      -0.94436700      -2.21735400
H        0.19230000      -0.00858300      -2.32140100
H       -1.36376000       0.81349600      -2.26011400
H       -1.75309800      -0.07286900       0.04892200
H        0.94492200      -1.42828200      -0.37147100
H       -1.17705500      -1.83103800       1.80872600
H        0.29230600      -2.77991600       1.61384500
H       -0.97051300      -2.85046000       0.38912700
H        1.90094500       0.18171900       1.15755300
H        0.50215100       0.07775000       2.23618500
H       -0.61665200       1.78840800       0.95749300
H        1.60913500       1.45957900      -1.12572100
H        1.49730600       2.72681700       0.08762900
H        0.30455100       2.64055100      -1.20417800
