11
Properties=species:S:1:pos:R:3 pbc="F F F"
N       -1.60580200       0.70757000      -0.19125000
C       -0.14319700       0.70808700      -0.27948900
C        0.41175900      -0.68347300      -0.13005600
C        1.53073200      -0.97987200       0.53098900
H       -1.97188800       1.65119800      -0.28587800
H       -1.91092800       0.32853800       0.70143700
H        0.32649200       1.38545300       0.46371800
H        0.14090000       1.10162700      -1.27063700
H       -0.15088300      -1.47744800      -0.62034800
H        2.11066000      -0.21444100       1.03467300
H        1.90049200      -1.99635900       0.58712700
