14
Properties=species:S:1:pos:R:3 pbc="F F F"
N       -2.70240200       0.00923300      -0.04286100
N       -1.31844100       0.17684500      -0.11321900
C       -0.58455500      -0.87438300       0.05902900
C        0.91922600      -0.82651800      -0.06175100
C        1.47132300       0.54527300      -0.32899000
C        2.50355200       1.07902400       0.32425800
H       -3.15896500       0.85550100       0.29765700
H       -2.98246400      -0.81385600       0.49785400
H       -1.03154500      -1.86027900       0.29901600
H        1.22299900      -1.49951900      -0.88176700
H        1.37697300      -1.25149800       0.84143400
H        0.98303500       1.11265200      -1.12071300
H        3.00734000       0.54564200       1.12251600
H        2.87125100       2.06843700       0.08128100
