14
Properties=species:S:1:pos:R:3 pbc="F F F"
C       -2.14508200      -0.61687400      -1.04771500
O       -0.73698200      -0.75401500      -0.96542400
C       -0.18244500      -0.21856900       0.22416900
C        0.12087700       1.27000700       0.26844900
C        1.23033000       0.24791400       0.16702300
O        2.08113900       0.04766100       1.27565700
H       -2.47668000      -1.08333700      -1.97998700
H       -2.44788000       0.44496900      -1.04991000
H       -2.64753100      -1.11400000      -0.19887100
H       -0.56361200      -0.68291400       1.15052600
H       -0.01582600       1.78754200       1.21383000
H       -0.11205600       1.85878800      -0.61258900
H        1.77835500       0.17125300      -0.77397200
H        1.58989200       0.17366100       2.09755300
