19
Properties=species:S:1:pos:R:3 pbc="F F F"
C       -2.26791400       1.39305400       0.33328400
C       -0.76007500       1.27595200       0.39750100
C        0.09109300       1.87807200      -0.68449200
C       -0.02026300       0.38546300      -0.56114700
C        1.18187200      -0.43209600      -0.09407100
C        0.78577500      -1.75907300       0.49656800
C        1.27559100      -2.93582700       0.10551300
H       -2.60476400       2.35054200       0.73029100
H       -2.74832400       0.60818100       0.91700000
H       -2.62266300       1.31251600      -0.69184400
H       -0.34766300       1.33730600       1.40633400
H        1.02586200       2.34717300      -0.39315800
H       -0.40996500       2.35566400      -1.52041000
H       -0.62922000      -0.10535600      -1.32169400
H        1.87491400      -0.59096700      -0.92838500
H        1.73054100       0.14585000       0.66199300
H        0.04994700      -1.72631000       1.30062300
H        2.00492200      -3.00754500      -0.69323100
H        0.95994300      -3.86031900       0.57355300
