13
Properties=species:S:1:pos:R:3 pbc="F F F"
N       -0.23425900      -2.30353600       0.66864800
C       -1.30128700      -1.36289300       0.33579500
C       -0.79759600       0.01128900      -0.00391400
C        0.49919400       0.33658300      -0.15494600
C        0.95249200       1.65264300      -0.48703200
C        1.38922600       2.74936500      -0.76626900
H       -0.61483500      -3.23138800       0.83412500
H        0.26376400      -2.00442900       1.50346000
H       -2.05090400      -1.27239700       1.15469300
H       -1.86551100      -1.76292500      -0.52378600
H       -1.56048600       0.77666100      -0.14039200
H        1.27322500      -0.42172800      -0.03236200
H        1.74237500       3.71903800      -1.01807700
