15
Properties=species:S:1:pos:R:3 pbc="F F F"
C       -2.32126100      -0.29221600       1.27317800
C       -1.25167200      -0.80412600       0.66373900
C       -0.57700800      -0.18499600      -0.53151000
N        0.88934500      -0.32956000      -0.45021700
C        1.67670700       0.65083000      -1.19749900
C        1.60393900       0.71188500       0.28843900
H       -2.78211000      -0.79177100       2.11671700
H       -2.76667200       0.64136800       0.94741900
H       -0.82718700      -1.74190700       1.02209100
H       -0.88596700       0.87274300      -0.64445300
H       -0.91695500      -0.70752000      -1.44409100
H        1.13473700       1.40554400      -1.77331900
H        2.57442700       0.26294700      -1.68212300
H        1.01011700       1.50755100       0.74388800
H        2.44996400       0.36970200       0.88730400
