17
Properties=species:S:1:pos:R:3 pbc="F F F"
C       -1.95855300      -0.00603600       0.43102300
C       -0.63995700      -0.05157100       1.16994600
C        0.57524000      -0.81272200       0.67371400
C        0.58686000       0.69820900       0.72428100
C        0.64822200       1.20315100      -0.71691600
C        0.63454700      -0.06069000      -1.54251500
C        0.61432500      -1.16227800      -0.77706000
H       -2.60549500      -0.82395400       0.74791100
H       -1.81945800      -0.08470300      -0.64403500
H       -2.48549600       0.92692200       0.63463600
H       -0.75543000      -0.08911100       2.25640600
H        1.12588300      -1.42321700       1.39139500
H        1.16371100       1.22730300       1.48411200
H        1.55963700       1.78999600      -0.89754400
H       -0.19141900       1.86444700      -0.97067300
H        0.62938400      -0.05289300      -2.62884800
H        0.61458100      -2.18317000      -1.14819300
