16
Properties=species:S:1:pos:R:3 pbc="F F F"
C        1.40586600      -0.67571500      -0.79858200
C        0.77043200      -0.06787700       0.45815000
C       -0.79174600      -0.03189600       0.42461400
O       -1.30274700      -1.36793200       0.31758300
C       -1.36993500       0.84443300      -0.69358100
O        1.27880500       1.25552900       0.67645800
H        2.48907600      -0.69821800      -0.70294300
H        1.16330600      -0.09833000      -1.69057300
H        1.06120800      -1.69628200      -0.95327600
H        1.07504100      -0.66450000       1.33628300
H       -1.14094100       0.35538300       1.39828600
H       -1.25765700      -1.66209500      -0.60196100
H       -1.08185200       0.47952700      -1.67934800
H       -1.02414100       1.87199900      -0.59976000
H       -2.45657300       0.85057100      -0.64719300
H        1.27635800       1.74749200      -0.15544800
