17
Properties=species:S:1:pos:R:3 pbc="F F F"
C       -1.33609100      -1.11484200       1.17867500
C        0.16015000      -0.90618700       0.98784200
C        0.54470000      -0.27305100      -0.36849300
C        0.12110700       1.20587200      -0.52673800
N       -1.31689400       1.33900700      -0.77770800
O        1.96883700      -0.36688100      -0.53505700
H       -1.53701100      -1.59006300       2.13690900
H       -1.74312400      -1.75399500       0.39748800
H       -1.87148800      -0.16935200       1.14929600
H        0.67266300      -1.87032500       1.06980500
H        0.54988900      -0.28258200       1.80191900
H        0.10150700      -0.86502200      -1.19090100
H        0.72122000       1.65240200      -1.34506700
H        0.37384900       1.77063400       0.38323000
H       -1.58287400       0.82847900      -1.61646200
H       -1.56772700       2.31630300      -0.90346200
H        2.41146700       0.05476600       0.21394700
