19
Properties=species:S:1:pos:R:3 pbc="F F F"
C       -2.11309100       1.86881700       1.16903200
C       -1.41903500       0.73757600       1.29915100
C       -1.00348500      -0.14326500       0.15435600
C        0.51641100      -0.47217100       0.16553900
C        0.81382300      -1.54974600      -0.85692600
C        1.67443600      -1.46768100      -1.87157800
C        1.36302600       0.79164700      -0.00119800
H       -2.40076700       2.45434800       2.03372800
H       -2.41318900       2.23928200       0.19565300
H       -1.13251600       0.39721900       2.29543900
H       -1.27726300       0.32145400      -0.79708000
H       -1.56018500      -1.08884500       0.21480000
H        0.74154700      -0.90263900       1.15877100
H        0.24851400      -2.47410600      -0.72260000
H        2.25872000      -0.57535100      -2.06006700
H        1.81639200      -2.30168500      -2.54828400
H        1.18353900       1.26200500      -0.96562200
H        2.42418100       0.56257400       0.07121100
H        1.11852300       1.51467000       0.77379600
