23
Properties=species:S:1:pos:R:3 pbc="F F F"
C       -2.84796800      -0.32817600      -1.12388400
C       -1.32978900      -0.20934200      -1.18493300
C       -0.66011600      -0.58679400       0.14184000
C        0.88443000      -0.57011800       0.09249400
C        1.48148900       0.82518000      -0.21494300
C        1.13997100       1.91574000       0.79337000
C        1.46503400      -1.15914700       1.38569600
H       -3.29795100      -0.05098400      -2.07496600
H       -3.26092700       0.32267500      -0.35572200
H       -3.15273100      -1.34708800      -0.89320700
H       -1.05981100       0.81522100      -1.46007200
H       -0.94634000      -0.85349600      -1.98399000
H       -0.98470600      -1.59340800       0.42877000
H       -1.01469800       0.08115700       0.93346200
H        1.19462300      -1.22974800      -0.73606800
H        1.15167400       1.14301400      -1.20972100
H        2.57089100       0.72496500      -0.27573800
H        0.06786900       2.09419600       0.83751300
H        1.62118000       2.85177700       0.51649300
H        1.47695300       1.65217900       1.79348900
H        1.15658800      -0.58559300       2.25731300
H        2.55286000      -1.16527900       1.35702500
H        1.12621400      -2.18363800       1.52758200
