21
Properties=species:S:1:pos:R:3 pbc="F F F"
C       -0.89664400       2.07545600       0.16521400
C       -0.17772000       0.98775200       0.95793300
C        0.58328400      -0.01595200       0.08237200
C        1.76715000       0.57870500      -0.67128000
C        0.74065900      -1.42466000       0.60140200
C       -0.14990400      -1.15874600      -0.58247400
C       -1.64839900      -1.35348000      -0.48194800
H       -1.43016800       2.74845800       0.83351100
H       -1.61906400       1.64491400      -0.52483100
H       -0.19470100       2.67023000      -0.41534200
H       -0.90408000       0.45431300       1.57854700
H        0.52843400       1.45904100       1.65250300
H        2.48206200       1.03072000       0.01633600
H        1.44694600       1.35507200      -1.36561300
H        2.28976100      -0.18461200      -1.24370300
H        0.26062800      -1.67424100       1.54256900
H        1.68078600      -1.93906900       0.42612000
H        0.26206400      -1.47025600      -1.54465200
H       -2.02111200      -1.10916800       0.50971000
H       -1.91519900      -2.38981700      -0.68926100
H       -2.17691000      -0.73003200      -1.20321200
