14
Properties=species:S:1:pos:R:3 pbc="F F F"
N       -0.92948800       1.00102800       1.92327100
C       -0.45926700       1.22086000       0.73110900
N        0.18117700       0.25036900       0.01083400
C        0.47010500       0.15785100      -1.41008400
C        0.55172000      -1.37510100      -1.27318400
C        0.18764300      -1.19219000       0.21236200
H       -1.34622000       1.83666700       2.33559600
H       -0.49737600       2.20925200       0.21565800
H        1.40356100       0.66274000      -1.71833600
H       -0.33786200       0.52880000      -2.06540100
H        1.54140100      -1.79865900      -1.45736400
H       -0.17804600      -1.92945800      -1.86668300
H        0.94112900      -1.53946600       0.93864500
H       -0.78961300      -1.59818000       0.51792500
