12
Properties=species:S:1:pos:R:3 pbc="F F F"
N       -2.43474600       1.28425700       0.03298600
N       -1.04666100       1.25607500      -0.08005100
C       -0.43367800       0.20801700       0.36735400
C        1.07827600       0.15138500       0.35933300
C        1.60069900      -1.11620600      -0.15657700
C        2.03801300      -2.16095700      -0.57686700
H       -2.85647600       1.83543000      -0.71443400
H       -2.85604300       0.35405400       0.10518000
H       -0.98059600      -0.65905700       0.78228100
H        1.46093800       0.28990200       1.38421000
H        1.48009200       0.98101400      -0.23467000
H        2.42207200      -3.07710000      -0.95256700
