15
Properties=species:S:1:pos:R:3 pbc="F F F"
C        0.32380200      -1.87307200       1.82046000
C       -0.05217300      -0.77995700       1.46984200
C       -0.51010900       0.55120600       1.07555400
C       -0.01997800       0.98767900      -0.33280100
C       -0.60281000       0.13959400      -1.38620900
C       -1.09358200      -0.53384800      -2.26042700
C        1.51193200       1.01549800      -0.41916500
H        0.64612200      -2.84272900       2.11013500
H       -0.15807300       1.28254800       1.81549400
H       -1.60655000       0.57697700       1.10372600
H       -0.39465500       2.01470400      -0.49657500
H       -1.51542500      -1.14616400      -3.01889800
H        1.92679500       0.02438500      -0.25410100
H        1.92232400       1.68560800       0.33411400
H        1.83697900       1.36206900      -1.39741600
