14
Properties=species:S:1:pos:R:3 pbc="F F F"
C       -1.76291600       0.87525200      -0.93613200
C       -1.80567800       0.31326100       0.28134400
C       -0.86485200      -0.66447300       0.82642700
C        0.46990500      -0.75388400       0.60678300
C        1.28532200       0.17269500      -0.16296400
C        2.58050700      -0.04481400      -0.44649400
H       -2.52921100       1.57417100      -1.24967800
H       -0.99215900       0.62933700      -1.65604700
H       -2.65190500       0.54929700       0.92963200
H       -1.30768200      -1.38871900       1.51199500
H        1.00719600      -1.57168600       1.08822600
H        0.81661600       1.09752100      -0.49599400
H        3.08023900      -0.95655100      -0.13880900
H        3.16318500       0.67841500      -1.00311200
