13
Properties=species:S:1:pos:R:3 pbc="F F F"
C       -1.63080600      -0.18277500      -0.23401400
C       -0.13110700      -0.10338000      -0.13239500
C        0.57250600       0.60684300       0.77691700
C        0.02261600       1.46092500       1.87038500
C        0.59460100      -0.87397900      -1.11901700
N        1.16346200      -1.49238800      -1.91062000
H       -2.12274800       0.41232300       0.53004600
H       -1.96714900      -1.21528200      -0.13312000
H       -1.96742800       0.16762200      -1.21039200
H        1.65959000       0.56293500       0.72096700
H       -1.06386400       1.47821900       1.88744000
H        0.37783300       2.48781200       1.76615600
H        0.37267400       1.10728700       2.84199200
