17
Properties=species:S:1:pos:R:3 pbc="F F F"
C       -0.94937400      -2.10025800       1.29761900
N       -1.34472400      -1.36435400       0.09934400
C       -0.88608500       0.03268600       0.06048800
C        0.61977100       0.14114600      -0.23908900
C        1.09760800       1.56512700      -0.25726400
C        1.76388600       2.12920000      -1.26537100
H       -1.39723600      -3.09597600       1.27513900
H       -1.26370400      -1.60473400       2.23439000
H        0.13703200      -2.21820000       1.33593800
H       -2.36264700      -1.38734100       0.00813300
H       -1.11059800       0.56412000       1.00985800
H       -1.45223400       0.54770200      -0.72712400
H        0.84415000      -0.34577700      -1.19245500
H        1.17509700      -0.40964700       0.53201100
H        0.87559600       2.15695900       0.63228300
H        2.00016600       1.57594600      -2.16682100
H        2.09261200       3.16001500      -1.21506500
