12
Properties=species:S:1:pos:R:3 pbc="F F F"
O       -0.80501900      -1.46277400       1.84017400
C       -1.35662000      -0.72057700       1.05159500
O       -0.70818300       0.00271000       0.10412800
C        0.67162100      -0.11796500       0.03731300
C        1.38466400       0.56359500      -0.87132000
C        0.80358400       1.50044700      -1.88469000
H       -2.46631700      -0.54215800       1.00967900
H        1.10742200      -0.79926000       0.77240900
H        2.46344000       0.42967900      -0.87724800
H       -0.27695600       1.56085100      -1.78950100
H        1.04230400       1.17427700      -2.89848800
H        1.21623200       2.50412000      -1.76865700
