23
Properties=species:S:1:pos:R:3 pbc="F F F"
C        0.86316500      -0.94675700      -1.80478800
C        0.21732100      -1.40590600      -0.49170700
C        0.47423300      -0.42512200       0.68351300
C        0.22661100       1.08598600       0.44944000
C       -1.25824300       1.45107500       0.32387800
C        0.87062900       1.89190600       1.58915100
C       -1.26367100      -1.75513000      -0.69599600
H        1.91614400      -0.71336600      -1.66013300
H        0.37280500      -0.06120400      -2.20356500
H        0.79250500      -1.72935900      -2.55781400
H        0.71842700      -2.34436700      -0.19831200
H        1.52488800      -0.53985000       0.97409900
H       -0.11261000      -0.75424100       1.54796500
H        0.72918300       1.37987400      -0.48537900
H       -1.82468700       1.09204700       1.18082300
H       -1.69957800       1.02817100      -0.57449800
H       -1.38004300       2.53156600       0.27368100
H        0.42222900       1.64109800       2.54855400
H        0.73973100       2.96045200       1.43022600
H        1.93781400       1.68941200       1.65672400
H       -1.82323700      -0.92869000      -1.12644900
H       -1.73380200      -2.02648600       0.24694700
H       -1.36003500      -2.60137000      -1.37382200
