15
Properties=species:S:1:pos:R:3 pbc="F F F"
C       -1.35068000       1.12457100       0.26163700
N        0.11275400       1.01409900       0.28779600
C        0.58009600      -0.24041700       0.91280200
C        0.20254800      -1.46335500       0.17563700
C       -0.10452600      -2.46188500      -0.43229900
C        0.72081700       1.25418500      -1.02660600
H       -1.74824600       1.01330200       1.27431900
H       -1.82999000       0.36369700      -0.37746500
H       -1.63645100       2.11022000      -0.11551200
H        0.17399500      -0.30060700       1.93595900
H        1.67822200      -0.20414900       1.00246800
H       -0.37487100      -3.33922900      -0.96709300
H        0.41995000       2.23873900      -1.39495600
H        0.42790900       0.50447800      -1.78111200
H        1.81066800       1.23626800      -0.93821200
