19
Properties=species:S:1:pos:R:3 pbc="F F F"
C       -2.40270000      -1.41314900       1.49003100
C       -0.97201200      -0.93054300       1.72176000
C       -0.36002600      -0.30683700       0.49622300
C        0.82076400      -0.69131500      -0.02409200
C        1.47480100      -0.14062500      -1.21338000
C        1.40652900       1.11355800      -1.70268500
C        0.65815000       2.26785100      -1.11754500
H       -2.82395400      -1.82365700       2.40550200
H       -2.43534500      -2.18814700       0.72760500
H       -3.04110700      -0.59534100       1.16161600
H       -0.35090400      -1.76291400       2.06851000
H       -0.98058400      -0.19133000       2.53569200
H       -0.94089300       0.47815000       0.01548600
H        1.34139700      -1.52900800       0.44404800
H        2.12596400      -0.84183500      -1.73741200
H        1.97354500       1.33230200      -2.60753100
H        0.53277900       2.16378500      -0.04119100
H       -0.33749800       2.36289000      -1.55860500
H        1.18357000       3.20147200      -1.31558800
