14
Properties=species:S:1:pos:R:3 pbc="F F F"
O       -1.06055800       1.51669800       0.87243200
C       -1.52402100       0.17750700       0.89578100
C       -0.80899800      -0.63409200      -0.18353900
C        0.70275300      -0.62598400      -0.00068200
C        1.56976800       0.32819000      -0.72042400
O        1.48248300      -1.03500700      -1.12433400
H       -1.54348200       2.04241000       1.52299300
H       -2.62223100       0.15273000       0.73354300
H       -1.34324500      -0.26760800       1.89881200
H       -1.05538500      -0.23215100      -1.17041100
H       -1.18112800      -1.66555200      -0.15919100
H        1.06309400      -1.02989800       0.96166600
H        2.53847600       0.62456000      -0.29738500
H        1.13149600       1.04826300      -1.42161900
