14
Properties=species:S:1:pos:R:3 pbc="F F F"
C       -0.55533300      -0.65682500      -1.97083500
O       -1.10394000      -0.93030300      -0.69855900
C       -0.50716400      -0.29239200       0.42519500
C       -0.41105700       1.22085400       0.50761100
C        0.83358000       0.36695600       0.39677200
O        1.68554400       0.24940100       1.51932400
H       -1.18686900      -1.15172700      -2.71515400
H        0.47349300      -1.04846100      -2.06786400
H       -0.53538100       0.42515200      -2.19015900
H       -0.80584600      -0.80902300       1.34407800
H       -0.63357800       1.68676000       1.46303900
H       -0.70470100       1.80572000      -0.35783800
H        1.41240700       0.41403300      -0.52801700
H        1.16747900       0.29319900       2.33333700
