15
Properties=species:S:1:pos:R:3 pbc="F F F"
C        0.06582800       2.66915100       0.41630700
C       -0.25451600       1.41317100       0.09301300
C        0.66627200       0.47669300      -0.59648200
C        0.12960400      -0.51061800      -1.59670800
C        0.63566300      -1.01023600      -0.27521400
C       -0.29008300      -1.54066000       0.70482600
C       -1.03756000      -2.01749100       1.52799000
H       -0.64089500       3.31526500       0.92110700
H        1.04120200       3.08150600       0.18521200
H       -1.24192700       1.02421500       0.33874400
H        1.65674000       0.87995500      -0.81331200
H        0.73139500      -0.71750300      -2.47663800
H       -0.94182600      -0.52746700      -1.76487800
H        1.60504800      -1.51465600      -0.28514600
H       -1.70098500      -2.42137500       2.25251500
