17
Properties=species:S:1:pos:R:3 pbc="F F F"
C        0.87315500      -1.71454200      -0.21743900
C        0.35508300      -0.43888500       0.44933700
O       -1.07722500      -0.44893600       0.33923800
C       -1.74128700       0.53513300       1.10402700
C        0.98558200       0.84378800      -0.15011000
N        0.50078700       1.11619900      -1.50057900
H        1.95701600      -1.78198200      -0.14062900
H        0.60523400      -1.74390000      -1.27169200
H        0.44284800      -2.59420900       0.25605600
H        0.62821100      -0.46725000       1.53421000
H       -2.81740200       0.34245600       1.04012500
H       -1.54507600       1.55547400       0.72991100
H       -1.43486700       0.49652600       2.16676100
H        2.09193500       0.73225500      -0.11426700
H        0.75188100       1.70711100       0.49215600
H        0.58380000       0.29434000      -2.09256100
H        1.01351300       1.88431300      -1.92481600
