13
Properties=species:S:1:pos:R:3 pbc="F F F"
C       -2.17539200      -0.15726900       0.26266300
C       -0.69232100      -0.09198000       0.08087000
N        0.03711400      -1.14859200      -0.11558700
O        1.35600400      -0.80560800      -0.25234900
C        1.51508900       0.64583700      -0.13213500
C        0.11593900       1.18876000       0.10175100
H       -2.52259600      -1.18722900       0.25014700
H       -2.69499200       0.38781100      -0.52854600
H       -2.47754100       0.29573400       1.20897800
H        1.98514600       1.01793700      -1.05792400
H        2.21370200       0.84702800       0.69727800
H       -0.20732800       1.89078600      -0.67713500
H        0.01589100       1.72085600       1.05620900
