21
Properties=species:S:1:pos:R:3 pbc="F F F"
C       -1.19931500       0.03585600       0.95719500
C        0.30554200      -0.08732000       0.70832300
C        0.88360700      -1.41854000       1.14806100
C        0.21363200      -2.45055300       1.66086500
C        0.69615800       0.17595400      -0.77108600
C        0.39198600       1.60212900      -1.27442300
C       -0.91313600       1.72128700      -2.05377100
H       -1.43498800      -0.16090100       2.00108000
H       -1.76117100      -0.66721800       0.34600900
H       -1.54610400       1.03945200       0.72261300
H        0.80867100       0.68966600       1.31377900
H        1.96366500      -1.51024200       1.01732900
H       -0.85888300      -2.42545900       1.80924900
H        0.72839800      -3.35948400       1.94815200
H        0.20280500      -0.55856500      -1.41420300
H        1.77145700      -0.01043300      -0.86757100
H        1.21106100       1.92802400      -1.92435300
H        0.38111800       2.30106800      -0.43138400
H       -0.90378500       1.07212600      -2.92701900
H       -1.06127900       2.74274200      -2.39868700
H       -1.77181400       1.44634500      -1.44597300
