11
Properties=species:S:1:pos:R:3 pbc="F F F"
C       -0.66617500      -1.44155300      -1.28823600
C       -1.18667700      -0.61759300      -0.36146900
O       -0.53310800       0.32477100       0.36321400
C        0.82535900       0.38271800       0.38930100
C        1.46569000       1.41138300       0.96532800
H       -1.31283500      -2.14412900      -1.79329800
H        0.37955500      -1.43684500      -1.56145800
H       -2.25567400      -0.62781800      -0.12631600
H        1.35944800      -0.46599100      -0.05419800
H        0.92031000       2.23821800       1.39932500
H        2.54487500       1.42867000       1.00068600
