16
Properties=species:S:1:pos:R:3 pbc="F F F"
C       -0.69483200       2.02724500       1.29478300
C       -1.33838900       1.23698800       0.16224300
C       -0.70055900      -0.13553800      -0.04057600
O        0.66432400       0.03360800      -0.43572100
C        1.39497900      -1.07600900      -0.66585200
C        0.98178700      -2.35517500      -0.56747500
H       -1.15207600       3.00991400       1.39022200
H        0.36817900       2.16370200       1.11153200
H       -0.80611900       1.50950600       2.24588200
H       -1.26661400       1.80797400      -0.76878500
H       -2.40690100       1.10386700       0.36358500
H       -1.23931500      -0.70477400      -0.82223800
H       -0.74145600      -0.73443300       0.88884800
H        2.42091000      -0.82901300      -0.95969100
H       -0.02393000      -2.62547600      -0.28037900
H        1.67480400      -3.15518700      -0.78193800
