17
Properties=species:S:1:pos:R:3 pbc="F F F"
C       -2.87664000      -0.00582500       0.99135400
C       -1.40047100       0.20909000       1.05424200
C       -0.55075200      -0.12470900       0.06582300
C        0.91216800       0.06686600       0.09024000
C        1.58752400       0.40249100       1.21612700
C        1.68208400      -0.12795400      -1.15370600
C        1.19391100      -0.40937200      -2.36899500
H       -3.20910000      -0.65462400       1.80408800
H       -3.17793600      -0.45751500       0.04889400
H       -3.41306000       0.93803400       1.10617100
H       -1.02223900       0.66856700       1.96750300
H       -0.96596400      -0.56930800      -0.83745000
H        1.08504000       0.54984500       2.16383200
H        2.66265000       0.53437100       1.19774000
H        2.76174100      -0.01702900      -1.04545200
H        0.13387400      -0.52791600      -2.55927600
H        1.85805600      -0.52794600      -3.21655800
