14
Properties=species:S:1:pos:R:3 pbc="F F F"
C       -2.07388000      -0.25280700      -2.05310700
C       -0.54991800      -0.25126800      -1.96324400
C       -0.05938900      -0.22242500      -0.58066500
C        0.33559600      -0.19517300       0.56311700
C        0.84568100      -0.16642400       1.94566200
O        1.63597400       0.98356500       2.19072900
H       -2.39314100      -0.27711100      -3.09304700
H       -2.49226300       0.63790900      -1.59066500
H       -2.49326400      -1.12069300      -1.54975900
H       -0.14729900       0.61705200      -2.50179100
H       -0.14718700      -1.14007300      -2.46755400
H        1.43706900      -1.09071600       2.13850000
H        0.00916300      -0.16590200       2.66530600
H        2.15059500       1.19959300       1.40259800
