13
Properties=species:S:1:pos:R:3 pbc="F F F"
O       -1.02142200      -1.01947600      -0.84854800
C       -0.34683000      -1.14194500       0.38781400
C        0.46360300       0.10804800       0.68621400
C        1.13230700       0.86057400      -0.42327800
C       -0.04449100       1.45732200       0.27931800
H       -1.53546900      -1.81821200      -1.02032600
H        0.31820900      -2.03611600       0.37091800
H       -1.08191500      -1.32769000       1.20445900
H        1.00505500       0.06048800       1.63354900
H        0.97717400       0.49888000      -1.43342400
H        2.11290600       1.28745300      -0.23399300
H       -0.98198200       1.49401500      -0.26380500
H        0.12986200       2.29299900       0.95058900
