17
Properties=species:S:1:pos:R:3 pbc="F F F"
C       -1.07115200      -2.74074700       0.63064500
C       -0.98731000      -1.42411200       0.84459600
C        0.19741300      -0.59960900       0.50878200
C        0.53683700       0.60223600       1.34226100
C       -0.01000200       0.80933100      -0.04063500
C        0.87620600       1.29879600      -1.12288000
C        0.46740700       2.06435800      -2.13943000
H       -1.96223700      -3.29551300       0.89465100
H       -0.25128600      -3.29409500       0.18817900
H       -1.83045900      -0.89646800       1.29189800
H        1.04282500      -1.14852900       0.09261600
H        1.58803400       0.81599700       1.50950900
H       -0.11243000       0.83939000       2.17956000
H       -1.04581400       1.14477900      -0.10114900
H        1.92293700       0.99889600      -1.06147000
H       -0.56560900       2.37939000      -2.22876800
H        1.15764400       2.39463500      -2.90506000
