15
Properties=species:S:1:pos:R:3 pbc="F F F"
C       -2.77509600       0.57221300       0.06213000
C       -1.25256800       0.61969300       0.05381700
C       -0.64630400      -0.78135400      -0.05025600
N        0.81123200      -0.80775600      -0.07193700
C        1.68113200       0.25308100       0.01254200
O        2.89844800       0.09704500      -0.01529400
H       -3.18987500       1.57481100       0.12989800
H       -3.14455200      -0.00237800       0.90907700
H       -3.15737000       0.11029400      -0.84586800
H       -0.90010800       1.11043400       0.96665600
H       -0.91272500       1.23474400      -0.78569700
H       -1.03207700      -1.27487000      -0.96165600
H       -1.01137600      -1.39725600       0.79315700
H        1.23938700      -1.72735900      -0.15648200
H        1.19950000       1.26771500       0.10742700
