15
Properties=species:S:1:pos:R:3 pbc="F F F"
C       -1.16241600       1.42365800      -1.22011100
N       -1.54144700       0.82209200       0.05658300
C       -0.83250600      -0.42879300       0.37303000
C        0.64215800      -0.17983500       0.66718800
C        1.70822800      -0.49693700      -0.30710100
O        1.45661300      -1.34500500       0.80677400
H       -1.78139600       2.30395600      -1.40333300
H       -1.28224300       0.73587800      -2.07634600
H       -0.11628900       1.74252800      -1.19687400
H       -2.54958000       0.65192400       0.06642200
H       -0.92616700      -1.17716400      -0.44067900
H       -1.31000300      -0.86593000       1.26162600
H        0.84912700       0.59802300       1.42120400
H        2.66755800       0.03626700      -0.27629500
H        1.45342000      -0.92864900      -1.28403800
