19
Properties=species:S:1:pos:R:3 pbc="F F F"
C       -1.55395000      -1.74147500       1.00745800
C       -1.84746500      -0.63309900       0.32579400
C       -1.19074100       0.71458200       0.49659700
C        0.32628000       0.70097400       0.77346700
C        1.17280500       0.48650800      -0.46467200
C        2.03455600       1.42464100      -0.88335500
C        1.01755900      -0.81831000      -1.19353200
H       -2.10660600      -2.65814500       0.84324400
H       -0.75645900      -1.77090500       1.74076100
H       -2.66918900      -0.66521500      -0.39101200
H       -1.68751300       1.23121300       1.32998100
H       -1.39332900       1.32607000      -0.38843700
H        0.55358900      -0.07761300       1.51158300
H        0.60533900       1.65471700       1.23177000
H        2.14172500       2.36525100      -0.35694000
H        2.65065700       1.26947600      -1.76035200
H        1.20046100      -1.66044900      -0.52585200
H        1.70564500      -0.88705800      -2.03249900
H        0.00141500      -0.93027200      -1.57279400
