13
Properties=species:S:1:pos:R:3 pbc="F F F"
C       -1.88089500       0.15613900       1.08800800
C       -0.91984100       0.55996100       0.25729600
C       -0.31705800      -0.29636300      -0.82132100
C        1.18475700      -0.41375000      -0.77484300
C        1.97028400       0.01909800       0.21135900
H       -2.29423400       0.82205500       1.83564900
H       -2.27856300      -0.85163000       1.04703900
H       -0.54211600       1.58017100       0.32886400
H       -0.59706200       0.11684200      -1.80298600
H       -0.75628100      -1.30229400      -0.79305500
H        1.63617800      -0.91371400      -1.63319400
H        1.56416900       0.51226700       1.08620500
H        3.04442300      -0.11420000       0.16848600
