15
Properties=species:S:1:pos:R:3 pbc="F F F"
N       -1.48625400       1.30946800      -0.18441500
C       -0.04541600       1.52421600      -0.30689300
C        0.74941200       0.21498000      -0.18682200
C        0.62138000      -0.59405700       1.10835400
O        0.15231000      -1.74505500       0.38376100
C        0.19277500      -1.03767200      -0.87223700
H       -1.98580000       2.19459800      -0.19520900
H       -1.71067800       0.81540900       0.67585200
H        0.33524700       2.24259500       0.45252100
H        0.15802500       1.98379100      -1.28666200
H        1.79848800       0.41622400      -0.45129900
H       -0.12732200      -0.23341900       1.84057000
H        1.56222200      -0.79970200       1.65342100
H       -0.81203900      -0.93764900      -1.31835200
H        0.85825100      -1.53248500      -1.60444800
