14
Properties=species:S:1:pos:R:3 pbc="F F F"
C       -0.54687000       0.66885900      -1.54476700
C       -0.92795400       0.54039700      -0.07428700
O       -1.75620600       1.25889500       0.44304900
C       -0.22140600      -0.57768100       0.73503300
C        1.27669200      -0.47042000       0.69120900
C        2.07715000      -1.33809400       0.06930000
H       -1.13094500       1.44526900      -2.03022200
H       -0.70922800      -0.27359800      -2.06563600
H        0.51062100       0.91162400      -1.63818100
H       -0.53788000      -1.54477700       0.32975700
H       -0.57129400      -0.52233000       1.76998300
H        1.70963700       0.38516400       1.20850900
H        1.68100800      -2.20211700      -0.45110000
H        3.15205100      -1.20875700       0.07357100
