21
Properties=species:S:1:pos:R:3 pbc="F F F"
C       -1.57001000      -1.69634300      -2.26794700
C       -0.94206300      -0.40873500      -1.74482000
C       -0.55676200      -0.50039900      -0.28820700
C        0.44856800       0.15943100       0.31725900
C        0.70199700      -0.02950200       1.80297000
C        0.54115500       1.25545000       2.61414200
C        1.37669600       1.10890400      -0.39457600
H       -1.86519100      -1.58769800      -3.30969900
H       -2.45582200      -1.96117400      -1.69375600
H       -0.87203700      -2.52830000      -2.20263600
H       -1.65768000       0.41496200      -1.88333100
H       -0.07206700      -0.15123500      -2.35883400
H       -1.17942900      -1.15458500       0.32222300
H        1.72110000      -0.41165600       1.94869800
H        0.02336400      -0.79299700       2.19643900
H        1.23708400       2.02174700       2.27942600
H        0.73045800       1.06844300       3.66945400
H       -0.46632900       1.65455100       2.51918500
H        1.41699900       0.91705900      -1.46461000
H        2.38751300       1.03441900       0.00485000
H        1.05455100       2.14362800      -0.26032900
