19
Properties=species:S:1:pos:R:3 pbc="F F F"
C       -2.13241700       1.43473100       0.45387500
C       -1.29032300       0.78539700       1.25804000
C       -0.80827800      -0.62194500       1.03344900
C        0.72108000      -0.75288200       1.11182600
C        1.45149400      -0.04879100      -0.04281900
C        1.21551800      -0.70596300      -1.37540400
C        0.81962300      -0.06572600      -2.47578800
H       -2.45796800       2.44342200       0.67747300
H       -2.51775200       0.97652200      -0.44948600
H       -0.92067000       1.27993100       2.15769900
H       -1.16596100      -0.99219000       0.06851200
H       -1.25012500      -1.26983500       1.80354900
H        0.99028900      -1.81512300       1.11680300
H        1.07155300      -0.33797900       2.06351000
H        2.52973600      -0.06556900       0.16963100
H        1.15613700       1.00338700      -0.08550800
H        1.40346900      -1.77994600      -1.41908700
H        0.61930000       0.99935600      -2.46898900
H        0.68181200      -0.59089900      -3.41317700
