19
Properties=species:S:1:pos:R:3 pbc="F F F"
C       -1.71649900       0.36435600       1.40986400
C       -0.20334200       0.26874400       1.26211900
C        0.24871600      -0.69082600       0.12206800
N       -0.25292800      -0.30769300      -1.22028400
C        0.18349700       0.98819200      -1.73269600
C        1.77450500      -0.84701500       0.11857300
H       -1.98393200       1.00988400       2.24409600
H       -2.15629200      -0.61513100       1.59042100
H       -2.17587000       0.77507600       0.51269600
H        0.22932900      -0.08547400       2.20362900
H        0.21261000       1.26651100       1.09205400
H       -0.19165100      -1.68479900       0.33369800
H       -1.27426400      -0.34782000      -1.21876500
H        1.26942500       1.00784100      -1.85270000
H       -0.09904000       1.84048700      -1.08930800
H       -0.26659300       1.15302600      -2.71498600
H        2.27470500       0.11280400       0.00552000
H        2.09579400      -1.49073500      -0.69707100
H        2.11502300      -1.28852200       1.05313200
