15
Properties=species:S:1:pos:R:3 pbc="F F F"
C       -0.45262400       1.34268600      -1.63611600
C       -1.41923200       0.57285800      -0.75511900
N       -0.79166300      -0.24693700       0.28583000
C        0.55339000      -0.43020700       0.54210100
O        1.46044300       0.11442600      -0.09144100
C        0.86109000      -1.38292600       1.70316000
H       -1.01734000       1.92025200      -2.36690100
H        0.21365200       0.67289700      -2.17110900
H        0.15343700       2.02901100      -1.05252100
H       -2.05262900      -0.08048300      -1.38551200
H       -2.12025000       1.27943800      -0.27123100
H       -1.44658300      -0.75629100       0.87267100
H       -0.03724900      -1.77529300       2.17539700
H        1.45242300      -0.86994800       2.45872000
H        1.45688900      -2.22089800       1.34705500
