19
Properties=species:S:1:pos:R:3 pbc="F F F"
C       -1.67607700      -1.61000100       1.11747500
C       -1.98162200      -0.45342100       0.52814000
C       -1.04762400       0.68281000       0.21057300
C        0.46926000       0.37570300       0.29019200
C        0.87705800      -0.57633200      -0.81629400
C        1.87056700      -0.40064100      -1.68782700
C        1.27805600       1.67654800       0.30785500
H       -2.44290700      -2.34828700       1.31744600
H       -0.66532500      -1.85833800       1.41788000
H       -3.02325800      -0.26769000       0.26039700
H       -1.27742900       1.51049600       0.89713800
H       -1.28969200       1.06608000      -0.78810000
H        0.65201600      -0.14227600       1.24876200
H        0.28065000      -1.48680600      -0.87964100
H        2.49625100       0.48340600      -1.68164200
H        2.08506300      -1.14849900      -2.44163100
H        1.14576600       2.23828400      -0.61461300
H        2.33980200       1.47437700       0.42981600
H        0.96135800       2.31125500       1.13349600
