18
Properties=species:S:1:pos:R:3 pbc="F F F"
C       -1.12969900       1.26872000       1.24606600
N       -1.33275300      -0.17806500       1.29307600
C       -0.81234700      -0.90783400       0.12391300
C        0.72598800      -0.94310700       0.06995900
N        1.32810500       0.26792000      -0.51695800
C        1.21131200       0.35640700      -1.96949700
H       -1.58489800       1.72669900       2.12823400
H       -1.57477100       1.73851000       0.35040300
H       -0.06336800       1.50227300       1.24799700
H       -2.33177900      -0.37545300       1.38994700
H       -1.21328000      -0.49874100      -0.82642300
H       -1.18312100      -1.94107300       0.19623400
H        1.04025600      -1.85018800      -0.49066500
H        1.12248100      -1.05236400       1.08724400
H        2.31543400       0.30935800      -0.25502100
H        0.16266100       0.44151900      -2.26716200
H        1.63441600      -0.52106000      -2.49309900
H        1.73698700       1.24641500      -2.32316600
