17
Properties=species:S:1:pos:R:3 pbc="F F F"
C       -2.96416000       1.30782400       1.35518500
C       -1.94669800       0.67471400       1.20336600
C       -0.71637600      -0.10122400       1.03660400
C       -0.18250700      -0.05859800      -0.37859800
C        1.07777300      -0.35608200      -0.74702300
C        2.15789600      -0.77583600       0.21408100
C        1.48804000      -0.30154500      -2.19555800
H       -3.85650800       1.86975600       1.48086900
H       -0.92188200      -1.14265400       1.33440300
H        0.03387800       0.26765900       1.75040600
H       -0.89502900       0.22151900      -1.15159100
H        1.90652000      -0.54368500       1.24607600
H        3.10015400      -0.28553700      -0.02802400
H        2.33350200      -1.85134700       0.14945900
H        0.65936100      -0.00894400      -2.83549400
H        1.85425000      -1.27242500      -2.53263600
H        2.30194200       0.41014600      -2.34180500
