15
Properties=species:S:1:pos:R:3 pbc="F F F"
C        1.24607300       1.67791600       0.80517500
C        0.72664400       0.42510800       0.06644600
C       -0.82097900       0.39728400       0.06800500
C       -1.37819300      -0.67331300      -0.75725200
C       -1.85836700      -1.54196800      -1.44600100
N        1.24981300      -0.82025900       0.65183700
H        2.33375900       1.70473900       0.79607300
H        0.92152700       1.68426700       1.84424100
H        0.88372900       2.59039500       0.33602900
H        1.07423200       0.47327100      -0.98050800
H       -1.18426200       0.28316700       1.09812700
H       -1.20371200       1.36123600      -0.29251200
H       -2.26191600      -2.32168700      -2.04335800
H        0.93012700      -0.92768700       1.61150100
H        2.26675500      -0.81605000       0.64931300
