19
Properties=species:S:1:pos:R:3 pbc="F F F"
C       -1.38297900      -2.10125000      -1.18293700
C       -1.71017400      -0.81710700      -0.43030300
C       -1.13983500      -0.77246300       0.99334100
C        0.39493500      -0.69763800       1.05251700
C        0.94503900       0.53002400       0.46676700
C        1.42102300       1.53927900      -0.00045700
C        1.98829000       2.75471200      -0.57113500
H       -1.85778400      -2.10391000      -2.16186000
H       -1.73406100      -2.97570200      -0.63791800
H       -0.31106100      -2.21013500      -1.33338800
H       -2.79857100      -0.70411000      -0.37418700
H       -1.33812900       0.04246400      -0.99571400
H       -1.46696300      -1.65951100       1.54725800
H       -1.55914400       0.09254200       1.51725500
H        0.83170400      -1.56607400       0.54128200
H        0.71721000      -0.76586800       2.10105000
H        2.46169400       3.36343700       0.20153100
H        1.21424500       3.35774700      -1.04934600
H        2.74306000       2.51577300      -1.32272800
