10
Properties=species:S:1:pos:R:3 pbc="F F F"
C       -0.60989500       0.02402800      -0.00760000
C       -1.11420700       0.92956600      -1.03881300
C       -1.59089000       1.66246200      -1.87163000
O        0.83648900       0.00653600      -0.03291600
C        1.40657700      -0.80604600       0.88673800
O        0.76689500      -1.47386100       1.67781500
H       -0.98239500      -1.00231200      -0.17220700
H       -0.94589600       0.34619900       0.99369900
H       -1.97607600       2.31632600      -2.61574800
H        2.52777900      -0.78167800       0.82289400
