17
Properties=species:S:1:pos:R:3 pbc="F F F"
C       -0.85521800      -2.25005000      -0.08479400
N       -1.25657900      -1.20739300       0.85789600
C       -0.81051800       0.14496700       0.47347900
C        0.69450800       0.32568300       0.52917000
C        1.43004800       1.14518800      -0.23434800
C        0.92718900       2.04444000      -1.32003200
H       -1.19808700      -3.22176000       0.27906100
H        0.23719000      -2.30811200      -0.23394800
H       -1.31295900      -2.06915000      -1.06146000
H       -0.90187300      -1.43277400       1.79071700
H       -1.28874300       0.86555100       1.16043500
H       -1.19536800       0.37032200      -0.53012200
H        1.21003700      -0.26372300       1.28853000
H        2.50640200       1.18381300      -0.06208300
H       -0.12146200       1.87101800      -1.54814200
H        1.50510700       1.90275200      -2.23401000
H        1.03975200       3.09244300      -1.03509800
