21
Properties=species:S:1:pos:R:3 pbc="F F F"
C       -1.93710400       0.45077500      -1.66103600
C       -1.89844800       0.03821100      -0.19429700
C       -1.07662700       0.98414300       0.69330000
C        0.43868800       0.94885000       0.44143600
C        1.08935700      -0.37162000       0.83519000
C        1.29638000      -1.46163800      -0.17208500
C        2.47153900      -0.70111200       0.35786400
H       -2.55493900      -0.23511200      -2.23716900
H       -0.94160400       0.45048400      -2.09984500
H       -2.35081900       1.45093700      -1.77577600
H       -1.50363100      -0.97893500      -0.11096700
H       -2.92351600       0.00187100       0.19076300
H       -1.26661100       0.73416700       1.74342500
H       -1.43541900       2.00981500       0.55287300
H        0.90064600       1.76097600       1.01792000
H        0.64961300       1.16319600      -0.61089600
H        0.84902900      -0.70260600       1.84772300
H        0.99888200      -1.27307700      -1.19844600
H        1.17098800      -2.49055100       0.15026300
H        2.96274300      -0.00292900      -0.31228900
H        3.14193200      -1.21389300       1.04018900
