15
Properties=species:S:1:pos:R:3 pbc="F F F"
N       -0.19748900       1.89032600      -0.26264300
C       -0.87526300       0.78303200       0.41995900
C       -0.41501200      -0.56639200      -0.10096500
C       -1.29605600      -1.42277200      -0.65441600
C        0.99843800      -0.95174000       0.02738600
C        1.96153400      -0.21394600       0.59622800
H       -0.57057700       2.78340500       0.04887300
H       -0.32030600       1.81919900      -1.26927100
H       -1.97850400       0.85026600       0.32048200
H       -0.65820400       0.85327200       1.49823100
H       -2.34409200      -1.16736300      -0.75657300
H       -0.98249500      -2.39599400      -1.01397600
H        1.25334700      -1.93332700      -0.37471300
H        1.76144900       0.76908900       1.00412000
H        2.97995600      -0.57992400       0.65217700
