15
Properties=species:S:1:pos:R:3 pbc="F F F"
C       -2.59878200      -0.86333200      -1.11295900
C       -1.10167300      -0.62803000      -1.24375100
N       -0.56337200       0.01110000      -0.03130200
C        0.89384400       0.16052000      -0.05084600
C        1.40002100       0.81601400       1.23038400
O        2.55731800       0.81874200       1.56702600
H       -2.99725700      -1.31653500      -2.01753900
H       -3.12832100       0.07095200      -0.94083300
H       -2.81842400      -1.52812300      -0.27913500
H       -0.89532600       0.02242600      -2.10716900
H       -0.58826600      -1.59017200      -1.45405000
H       -0.85438300      -0.51940200       0.79407700
H        1.17826800       0.80085700      -0.90131300
H        1.42293200      -0.80196600      -0.21104600
H        0.60538300       1.32329400       1.86294400
