16
Properties=species:S:1:pos:R:3 pbc="F F F"
O       -1.42893800      -1.25165200      -0.26334300
C       -0.00611400      -1.26463000      -0.20681200
C        0.54573600       0.15683500      -0.41168600
C        0.08268100       1.11571000       0.71144600
O       -1.30780300       1.35170600       0.65011200
C        2.07542300       0.12338300      -0.50555800
H       -1.77010700      -2.15083200      -0.16492000
H        0.38789100      -1.94735300      -0.98787700
H        0.32423000      -1.67411300       0.77091100
H        0.14791100       0.53621900      -1.36448900
H        0.60132500       2.08522900       0.61975900
H        0.36534500       0.69251500       1.70255800
H       -1.74851600       0.52408000       0.39148000
H        2.51849400      -0.23810000       0.42177700
H        2.47479300       1.11696700      -0.69859200
H        2.40621100      -0.53283200      -1.30910100
