16
Properties=species:S:1:pos:R:3 pbc="F F F"
C       -1.72438400       0.69331700       0.41071600
C       -0.18797400       0.67792600       0.41223200
C        0.33470300      -0.48748900       1.23254400
C        1.41749900      -1.22122300       0.97022400
C        0.36531700       0.71755300      -1.03025000
O       -0.01740000      -0.42490800      -1.77323000
H       -2.11726100       0.65447500       1.42525900
H       -2.11698000      -0.15892200      -0.13893700
H       -2.09815300       1.59794500      -0.06458400
H        0.15091900       1.60136700       0.91819200
H       -0.24106200      -0.71277900       2.13166600
H        2.04183800      -1.04523000       0.10187300
H        1.72002000      -2.01982400       1.63662200
H        1.47282600       0.81267400      -1.00987000
H       -0.02332600       1.60331600      -1.55601200
H        0.11941100      -1.21425700      -1.23116800
