18
Properties=species:S:1:pos:R:3 pbc="F F F"
C       -1.74324900       1.42580700      -0.61910600
C       -0.22351000       1.37734000      -0.53364500
C        0.28714700       0.20647000       0.32543800
O       -0.11148600      -1.01833000      -0.32190000
C       -0.03501500      -2.17235700       0.48830700
C        1.81285000       0.26499000       0.51190000
H       -2.07006300       2.22947900      -1.27604900
H       -2.18585500       1.59236500       0.36172700
H       -2.13426300       0.48885700      -1.00757500
H        0.15487500       2.31819400      -0.11858900
H        0.19671900       1.29040400      -1.54024500
H       -0.19822000       0.24670400       1.33019900
H       -0.47643600      -3.00636800      -0.06732600
H       -0.58999200      -2.03939700       1.43541300
H        1.00867300      -2.43574200       0.74177800
H        2.32488800       0.18493400      -0.44466200
H        2.16619600      -0.54256200       1.14999800
H        2.10603400       1.20628100       0.97316900
