17
Properties=species:S:1:pos:R:3 pbc="F F F"
C       -1.76732500       0.61086300       0.95110500
C       -0.26374800       0.45141900       0.86661400
C        0.52995800       1.23120000      -0.16042100
C        0.42281200      -0.25920100      -0.28934000
C        1.64173600      -1.11493400       0.01728900
N       -0.36430100      -0.78317900      -1.40493000
H       -2.03433500       1.48756400       1.54114300
H       -2.22835700      -0.25572200       1.42560300
H       -2.21321900       0.72908300      -0.03434800
H        0.22259700       0.34966100       1.83820900
H        1.47488800       1.66374000       0.15407600
H       -0.03174800       1.84039700      -0.86099400
H        2.21881000      -0.69555500       0.83806300
H        2.29397300      -1.19161300      -0.85167700
H        1.34812400      -2.12747400       0.29515300
H       -1.11555000      -0.14531600      -1.65215900
H       -0.76568000      -1.68860000      -1.17003200
