19
Properties=species:S:1:pos:R:3 pbc="F F F"
C       -0.09605600       1.99953000      -1.08392400
C       -0.55201900       0.56974300      -1.35013600
C       -0.04450700      -0.48338500      -0.33611300
C       -0.59135300      -0.21129300       1.09426700
N       -0.37001000      -1.31541400       2.03496700
C        1.48454500      -0.60361300      -0.34808700
H       -0.49196800       2.67078500      -1.84351600
H        0.98853500       2.08004200      -1.10194100
H       -0.44186400       2.35452600      -0.11552100
H       -0.22767200       0.27464700      -2.35415500
H       -1.64751000       0.54161000      -1.36262100
H       -0.45362900      -1.45440600      -0.66326100
H       -0.12828400       0.69389500       1.50838900
H       -1.67198200      -0.01751300       1.03346400
H        0.62488900      -1.47610800       2.16974000
H       -0.78612400      -2.17376400       1.68203800
H        1.95737500       0.30334800       0.02313300
H        1.85192400      -0.78484200      -1.35627800
H        1.81272500      -1.43021600       0.27971400
