11
Properties=species:S:1:pos:R:3 pbc="F F F"
C       -2.60079600       0.17644300       0.23625700
C       -1.14426600       0.17847400       0.23912800
C        0.06596300       0.19376400       0.23896600
C        1.53976700       0.17816400       0.24020600
O        2.05831800      -0.56482200      -0.84886500
H       -2.98410100      -0.43540100      -0.58182700
H       -2.98899700       1.18887900       0.11421000
H       -2.99003800      -0.22612400       1.17290400
H        1.90153400      -0.24554300       1.20487300
H        1.93649300       1.20579400       0.17347400
H        1.49455700      -1.33010300      -1.02005700
