12
Properties=species:S:1:pos:R:3 pbc="F F F"
C       -0.07771300       0.00080900       2.01328600
C       -0.57403600       0.00019800       0.56475800
C       -0.08495000       1.13489100      -0.30080800
N        0.49135700       0.72941400      -1.38723600
N        0.49148100      -0.73048600      -1.38661400
C       -0.08482200      -1.13515100      -0.29987900
H       -0.43432400       0.88295600       2.54237200
H        1.00903300      -0.00122800       2.05404800
H       -0.43769000      -0.87880400       2.54430600
H       -1.67867500       0.00020400       0.57558200
H       -0.20474400       2.19789600      -0.08266400
H       -0.20434200      -2.19799900      -0.08083100
