19
Properties=species:S:1:pos:R:3 pbc="F F F"
C       -2.45953700       2.71158600      -0.42694100
C       -1.85113500       1.60669800      -0.85912800
C       -1.14929800       0.61855900       0.03004900
C        0.30698500       0.36330300      -0.40857500
C        1.01417700      -0.61403500       0.49139300
C        1.61262500      -1.73263000       0.06386500
C        2.32714400      -2.69796200       0.95613500
H       -2.95910100       3.38418300      -1.11335900
H       -2.47488000       2.97361200       0.62462600
H       -1.85248600       1.37694500      -1.92541300
H       -1.69632800      -0.33308500       0.00784400
H       -1.16872600       0.96549300       1.06780200
H        0.84772500       1.31916500      -0.40272000
H        0.32385900       0.00320400      -1.44255600
H        1.03115500      -0.37081900       1.55420000
H        1.59304900      -1.97941300      -0.99795900
H        2.30103100      -2.37639000       1.99474500
H        3.37143400      -2.80544200       0.65759700
H        1.87750200      -3.69057000       0.89440800
