19
Properties=species:S:1:pos:R:3 pbc="F F F"
C       -2.92798100       0.64942200       1.29790900
C       -1.45624800       0.38083600       1.33013800
C       -0.61263800       0.69176700       0.33816500
C        0.87523200       0.44169800       0.38528900
C        1.37956900      -0.36416300      -0.79891200
C        2.28587400       0.13254900      -1.65190500
C        0.81646500      -1.74896200      -0.95408700
H       -3.49575100      -0.27617500       1.40807100
H       -3.22714400       1.12433900       0.36637300
H       -3.22263600       1.30025400       2.12301900
H       -1.07168200      -0.09697800       2.23158900
H       -0.99644600       1.16905500      -0.56317400
H        1.12546500      -0.08369900       1.31563000
H        1.40390400       1.40328000       0.41249200
H        2.68300900       1.13292600      -1.53065100
H        2.64740900      -0.45138500      -2.48941200
H       -0.26859500      -1.71319000      -1.05495400
H        1.03275100      -2.35506200      -0.07320400
H        1.22807500      -2.25224300      -1.82536200
