15
Properties=species:S:1:pos:R:3 pbc="F F F"
C       -0.88879600      -2.30566500       0.65645800
C       -1.23320000      -0.86254200       1.01045000
N       -0.72867900       0.10087100       0.01884100
C        0.72902700       0.27749800       0.04456200
C        1.14847600       1.38465500      -0.82166000
C        1.52709500       2.30155500      -1.51087400
H       -1.32529300      -2.98975400       1.38090700
H        0.18722800      -2.46813300       0.65134400
H       -1.26994900      -2.56614100      -0.32819400
H       -0.85222800      -0.63368700       2.02914200
H       -2.32487100      -0.74852100       1.05352900
H       -1.18245800       1.00599500       0.15970900
H        1.22305800      -0.64966800      -0.29117800
H        1.10724100       0.47020800       1.07516800
H        1.84241200       3.10060000      -2.13592200
