16
Properties=species:S:1:pos:R:3 pbc="F F F"
C       -1.64695600       1.32051000      -0.75944800
N       -1.20452600      -0.06869500      -0.73909100
C       -0.83402500      -0.59649000       0.58435500
C        0.67415500      -0.59899400       0.85131600
C        1.59820300       0.47092400       0.37777700
N        1.56635200      -0.83068000      -0.28930300
H       -1.89561900       1.60617800      -1.78485700
H       -0.89457600       2.04055200      -0.38559400
H       -2.54606800       1.44188400      -0.14736000
H       -0.42539800      -0.21183100      -1.38738900
H       -1.19758600      -1.63771500       0.68222900
H       -1.35147400      -0.02247500       1.36566100
H        0.96199100      -1.10488200       1.78382300
H        2.48127100       0.70379100       0.97730200
H        1.21626500       1.30475300      -0.21173700
H        2.37015000      -1.40033900      -0.01732100
