18
Properties=species:S:1:pos:R:3 pbc="F F F"
C       -2.58399800       0.26984400      -0.33526500
C       -1.62664300      -0.06336900      -1.43651900
C       -1.15246800       0.70163400      -0.23814200
C       -0.22221700       0.05455400       0.78110100
C        1.24995300       0.29538000       0.46631600
C        2.06908600      -0.69108300      -0.29299200
N        2.23087200      -0.54746700       1.15473400
H       -2.91849600      -0.54083600       0.30388800
H       -3.33638100       1.02767100      -0.52895900
H       -1.73089000       0.46751500      -2.37762000
H       -1.31766900      -1.09890100      -1.53627400
H       -0.96771800       1.76588800      -0.40003900
H       -0.41475400      -1.02061100       0.83127500
H       -0.44341000       0.45637000       1.77933000
H        1.52743000       1.35219500       0.34921300
H        2.88284600      -0.32885200      -0.92513700
H        1.62297800      -1.63164700      -0.61877000
H        3.07768700      -0.01828800       1.37295600
