17
Properties=species:S:1:pos:R:3 pbc="F F F"
C       -2.12185600      -1.48002900       0.04393300
C       -0.65932100      -1.07054000       0.12896500
C       -0.40193800       0.38298800       0.46207100
C       -1.36377900       1.28866000       0.68024700
C        1.06492300       0.77500800       0.57773000
C        1.86544000       0.40184900      -0.59037700
C        2.54037300       0.10574900      -1.54784400
H       -2.20221700      -2.53878500      -0.19299800
H       -2.64380100      -0.92356100      -0.73137100
H       -2.63743700      -1.30838500       0.98637900
H       -0.15996100      -1.29717700      -0.82111600
H       -0.14838300      -1.69190900       0.87682100
H       -2.41315100       1.02909100       0.62886600
H       -1.11815800       2.31823300       0.91192100
H        1.49990700       0.28817700       1.46476000
H        1.15260700       1.85568900       0.74256100
H        3.12754000      -0.15348100      -2.39416700
