21
Properties=species:S:1:pos:R:3 pbc="F F F"
C       -0.60413700       1.77273600       1.52274400
C       -0.38845700       0.25998800       1.47337500
C        0.10965600      -0.21711900       0.11732200
C       -0.71204600      -0.58444600      -0.88286200
C       -2.21059600      -0.58614300      -0.85121100
C        1.62275100      -0.22710600      -0.01452800
C        2.18583900      -0.62455800      -1.37132800
H       -0.93837000       2.08271300       2.51129000
H       -1.35527800       2.08256000       0.79949900
H        0.31714300       2.30634700       1.29691600
H       -1.32405300      -0.24298300       1.73722800
H        0.34017900      -0.02006700       2.24285100
H       -0.27611600      -0.90525000      -1.82763000
H       -2.60876000      -0.43829200       0.14935500
H       -2.60179900      -1.52829900      -1.23740400
H       -2.61251900       0.20560300      -1.48771700
H        2.03295600      -0.89639300       0.75486900
H        1.99693900       0.77097700       0.25164200
H        1.89563600      -1.63744000      -1.64296200
H        3.27336300      -0.58562100      -1.35273400
H        1.84261600       0.04604300      -2.15628000
