19
Properties=species:S:1:pos:R:3 pbc="F F F"
C       -1.24022000      -0.67189800      -1.39445100
C        0.21979900      -0.43297700      -1.10277900
C        0.72934900       0.07883100       0.04507200
C        0.06782400       0.52880900       1.27817200
C        0.83173000       1.00180700       2.28786800
C       -1.42759700       0.47621100       1.44181600
C        1.15771400      -0.81437400      -2.21793500
H       -1.82231400       0.24770000      -1.33595800
H       -1.68231700      -1.38202600      -0.69532900
H       -1.36659200      -1.07677400      -2.39572000
H        1.81466700       0.18102600       0.07989100
H        1.90980300       1.05101500       2.19747500
H        0.38953700       1.34384300       3.21460900
H       -1.80395000      -0.54193600       1.34562000
H       -1.93215400       1.08456200       0.69143700
H       -1.71655300       0.84811900       2.42186500
H        1.05648100      -1.87267800      -2.46553100
H        2.19595500      -0.62352500      -1.95706600
H        0.92584400      -0.25777100      -3.12787000
