21
Properties=species:S:1:pos:R:3 pbc="F F F"
C        0.21485000       0.55847900      -1.58128000
C       -0.34820700      -0.46477200      -0.58823800
C       -1.88894100      -0.37998200      -0.47138100
C       -2.42905900       0.94059800       0.06414400
C        0.34156100      -0.34827800       0.79344800
C        1.80573300      -0.68689200       0.74499900
C        2.77581400       0.07572600       1.25084200
H        1.28227000       0.40482700      -1.72360100
H        0.07060100       1.57624000      -1.22525800
H       -0.27298800       0.46895000      -2.55010800
H       -0.12024600      -1.46958900      -0.98294900
H       -2.32244600      -0.56662400      -1.46002300
H       -2.23666100      -1.19485800       0.17364400
H       -2.14628400       1.77311300      -0.57612000
H       -2.05615700       1.14627700       1.06520200
H       -3.51581900       0.91293000       0.11385800
H       -0.15668900      -1.03875800       1.48847300
H        0.20633100       0.65726600       1.20197500
H        2.06450200      -1.63427900       0.26937100
H        2.55900700       1.02407000       1.72879900
H        3.81406200      -0.22883900       1.20153000
