16
Properties=species:S:1:pos:R:3 pbc="F F F"
O       -0.21170900      -1.62416900       0.60306800
C       -0.67151200      -1.06459600      -0.62325900
C       -0.07246300       0.33680200      -0.83870400
C       -0.52116600       1.32254500       0.26687500
O        0.00510000       0.97788500       1.53028300
C        1.45461000       0.27810200      -0.95192600
H       -0.55596000      -2.52192900       0.70341400
H       -1.78102100      -1.00986800      -0.61219400
H       -0.39322800      -1.73605000      -1.46167700
H       -0.47749500       0.70924800      -1.79548100
H       -1.63532400       1.34747600       0.30204000
H       -0.18733700       2.34499600       0.02023900
H        0.03157100       0.00774000       1.59393500
H        1.88917800      -0.09277400      -0.02745400
H        1.86476000       1.26728100      -1.14599900
H        1.76091400      -0.38297200      -1.76154600
