19
Properties=species:S:1:pos:R:3 pbc="F F F"
C       -1.64759800      -0.10217300       0.66039400
C       -0.15644400      -0.16772000       0.46488000
C        0.48556300       0.40483100      -0.58103100
C       -0.09571700       1.15436300      -1.69651900
C       -1.30240100       0.98883300      -2.26020300
C        0.57873000      -0.90766500       1.56652500
C        2.08297400      -1.06586200       1.40156400
H       -2.06866300       0.80912200       0.24045100
H       -1.89923000      -0.14350100       1.71960700
H       -2.14819900      -0.94587400       0.18021800
H        1.57356100       0.35766900      -0.59711500
H        0.56948000       1.90339100      -2.13121300
H       -1.99600200       0.22369800      -1.93741300
H       -1.60464100       1.60391200      -3.09909000
H        0.12354200      -1.90181300       1.67209100
H        0.37174500      -0.40238000       2.52010000
H        2.32913700      -1.60019500       0.48650300
H        2.49259600      -1.63019300       2.23692000
H        2.58603700      -0.10147700       1.37528200
