11
Properties=species:S:1:pos:R:3 pbc="F F F"
O       -2.13309400      -0.60855500      -0.36362000
C       -0.72093100      -0.67891500      -0.40504700
C       -0.14942200       0.54123700       0.32307300
C        1.31250300       0.55830100       0.33344300
C        2.52050500       0.57202800       0.34161900
H       -2.51740800      -1.36898500      -0.81837700
H       -0.36814000      -0.70404400      -1.45687600
H       -0.36870600      -1.61655200       0.07269400
H       -0.51984800       0.55664900       1.35548300
H       -0.51958200       1.45713900      -0.15383200
H        3.58250000       0.58832300       0.35134400
