15
Properties=species:S:1:pos:R:3 pbc="F F F"
C       -1.14713600       1.06261400       0.54454300
C       -1.62667900      -0.31319300       0.88230600
C       -0.16414600       0.01503200       0.96914000
C        0.83469500      -0.59144500       0.00518900
C        0.64911300      -0.55963800      -1.47135900
N        1.66320700       0.28416700      -0.83601700
H       -1.36933000       1.86226400       1.24394100
H       -1.16387500       1.36492800      -0.49797300
H       -1.95880500      -0.94447000       0.06412000
H       -2.18006100      -0.44696700       1.80648700
H        0.22707500       0.12871100       1.98263700
H        1.38640100      -1.44541300       0.41877600
H       -0.22787900      -0.06151800      -1.88885200
H        1.03923100      -1.37644000      -2.08094800
H        1.32971600       1.24951700      -0.77498300
