15
Properties=species:S:1:pos:R:3 pbc="F F F"
N       -0.75585700       1.09079100       1.44935000
C       -0.85913600       0.90449200      -0.00211700
C       -0.33013100      -0.45594700      -0.41923300
C       -1.16437200      -1.42050800      -0.85266800
C        1.11671800      -0.71456400      -0.35699500
C        2.06642000       0.18743000      -0.07108800
H       -0.98693200       2.04675900       1.70672800
H        0.18372500       0.87850500       1.77429000
H       -0.30834000       1.69477700      -0.55722300
H       -1.91420200       0.99672700      -0.29775000
H       -2.23392800      -1.25781700      -0.90920800
H       -0.79040400      -2.39198600      -1.15618100
H        1.41945000      -1.73872700      -0.57891900
H        1.83218500       1.22387900       0.14261400
H        3.11244700      -0.09306600      -0.05719200
