17
Properties=species:S:1:pos:R:3 pbc="F F F"
C        1.35407800       1.41814800       0.06738000
C        0.78086100      -0.00444400      -0.01503500
C       -0.78660500      -0.03630700       0.01295300
N       -1.39249700       0.77263500      -1.06394700
C       -1.30019900      -1.47695600      -0.07319600
O        1.29425900      -0.79093100       1.06951600
H        2.43843000       1.38505200       0.14228500
H        0.97482600       1.94580300       0.94210800
H        1.09786400       2.00268200      -0.81419600
H        1.14034000      -0.48884400      -0.94166000
H       -1.11660100       0.39847500       0.97583400
H       -1.13476200       0.40633400      -1.97718100
H       -1.09428700       1.74267800      -1.00394700
H       -1.04503400      -1.92082500      -1.03419700
H       -2.38200800      -1.50860800       0.03435500
H       -0.85529400      -2.08778000       0.70804300
H        1.08111600      -0.35861200       1.90744700
