14
Properties=species:S:1:pos:R:3 pbc="F F F"
C       -0.79158600      -0.87171800       1.52830600
N       -1.13623300       0.35493200       0.81084500
C       -0.58448300       0.42102300      -0.55551000
C        0.92851400       0.48065300      -0.60172800
C        1.68581100      -0.21000100      -1.45396600
H       -1.23570600      -0.84569800       2.52633700
H        0.29596600      -1.02115000       1.64214200
H       -1.19137900      -1.74003400       0.99798400
H       -0.82176000       1.16757200       1.34697600
H       -0.99131200       1.32586900      -1.03912400
H       -0.94959600      -0.43852800      -1.13276000
H        1.40507400       1.15431900       0.11198500
H        1.24750100      -0.89145400      -2.17460300
H        2.76531100      -0.11516500      -1.45746700
