16
Properties=species:S:1:pos:R:3 pbc="F F F"
C       -1.48796400       0.58057200       0.99421700
C        0.04237100       0.59239600       0.93727400
C        0.59073100      -0.34330600      -0.12510000
N       -0.17942200      -1.13083300      -0.80258400
N        0.43392400      -2.00812100      -1.70250000
C        0.58555000       2.01841900       0.74341100
H       -1.85923500      -0.42538000       1.17521900
H       -1.91606200       0.93188400       0.05786800
H       -1.84792500       1.22638600       1.79305400
H        0.41989800       0.23562000       1.91447600
H        1.68813600      -0.33015600      -0.28454500
H       -0.17573400      -2.20312200      -2.49680900
H        1.35728000      -1.68872400      -2.00830600
H        0.23267700       2.44859300      -0.19158900
H        1.67404500       2.02057300       0.72386700
H        0.26127600       2.66851600       1.55354200
