17
Properties=species:S:1:pos:R:3 pbc="F F F"
C       -3.03348600       0.09171000       0.06095000
C       -1.54067700       0.17884100       0.12803000
C       -0.71592500      -0.62650800      -0.55327200
C        0.78801600      -0.59040200      -0.53423000
C        1.41371800       0.45875600       0.38615500
N        2.87629000       0.40172800       0.30673100
H       -3.45795400      -0.10043700       1.04803600
H       -3.35787700      -0.70124700      -0.60901000
H       -3.46360700       1.03160500      -0.28963400
H       -1.13722800       0.95457400       0.77769600
H       -1.15083900      -1.39231100      -1.19767500
H        1.15168800      -0.43266700      -1.55840300
H        1.16118700      -1.58589900      -0.25304400
H        1.05206300       0.30842100       1.42502700
H        1.08729700       1.46512000       0.08795000
H        3.21473900      -0.52100000       0.56763600
H        3.29662600       1.08736400       0.92851000
