21
Properties=species:S:1:pos:R:3 pbc="F F F"
C       -2.94214400       0.81566500      -1.47832400
C       -1.43428000       0.87537500      -1.27113100
C       -0.89740500      -0.33536800      -0.48806200
C        0.60501800      -0.32059700      -0.37070200
C        1.34313800      -0.37066400       0.75401900
C        0.78383300      -0.43663300       2.15037100
C        2.84963200      -0.36068700       0.67746900
H       -3.29394100       1.68991100      -2.02241400
H       -3.46921900       0.77964800      -0.52670900
H       -3.22440300      -0.06861200      -2.04668900
H       -1.17446300       1.79626800      -0.73969900
H       -0.93370500       0.93031800      -2.24366100
H       -1.20545600      -1.25231600      -1.00996200
H       -1.37276000      -0.37097500       0.49610100
H        1.13796500      -0.26887900      -1.32101300
H       -0.30200100      -0.42140300       2.16805500
H        1.14458200       0.40340100       2.74596000
H        1.11754300      -1.34517900       2.65414600
H        3.19807800      -0.33927100      -0.35237100
H        3.27005900      -1.24339500       1.16183400
H        3.26096600       0.50794500       1.19458100
