17
Properties=species:S:1:pos:R:3 pbc="F F F"
C       -1.94010600      -1.80911100       0.31849000
C       -0.49089400      -1.50823500       0.12331700
C        0.08254200      -0.27790400       0.03105300
C       -0.71997900       0.95980000       0.13909000
C       -0.49400500       2.09623000      -0.53107300
C        1.54374600      -0.21097600      -0.16201800
C        2.33112700       0.85031500       0.06011400
H       -2.07400200      -2.58181600       1.07675500
H       -2.38319500      -2.19600000      -0.60296400
H       -2.51264700      -0.93406800       0.61621700
H        0.15806100      -2.37943000       0.02479000
H       -1.58954500       0.91305700       0.79663000
H        0.32325400       2.19479600      -1.23496500
H       -1.14678200       2.95194100      -0.40683900
H        2.01249700      -1.14945200      -0.46392900
H        1.93489200       1.79836400       0.40219900
H        3.40288900       0.78189000      -0.08173400
