15
Properties=species:S:1:pos:R:3 pbc="F F F"
N       -0.86801600       0.56690600       1.87935300
C       -1.17388500       0.62172800       0.45741100
C       -0.26011200       1.32309100      -0.51954700
C       -0.39174800      -0.18576100      -0.53063200
C        0.78801200      -1.06021900      -0.12317400
O        1.62452600      -1.33528700      -1.23893200
H       -1.20894100       1.40228100       2.35036300
H        0.13314400       0.49255900       2.03826400
H       -2.24783900       0.71050300       0.26986700
H        0.66775800       1.73653700      -0.13651000
H       -0.69820100       1.88072500      -1.34167000
H       -0.96561900      -0.59118200      -1.36595700
H        1.37900600      -0.56880700       0.67917500
H        0.44182800      -2.02794600       0.27219600
H        1.80516700      -0.51374400      -1.71409300
