16
Properties=species:S:1:pos:R:3 pbc="F F F"
C       -2.66884500       0.76873100       0.23803300
O       -1.25801300       0.69431500       0.25736600
C       -0.76367800      -0.61317900       0.53234100
C        0.76218000      -0.59019700       0.53280000
C        1.34621600      -0.14713500      -0.81702900
O        2.76590200      -0.13907100      -0.78594800
H       -2.95361600       1.80253500       0.02113400
H       -3.10228100       0.47264200       1.21096000
H       -3.09693900       0.10780000      -0.53779800
H       -1.14623300      -1.32926100      -0.22835600
H       -1.15023900      -0.96429300       1.51422100
H        1.13894100      -1.58656900       0.78731700
H        1.11613800       0.08550500       1.32038600
H        0.96508200       0.85819300      -1.08342400
H        1.03974300      -0.83802900      -1.61695000
H        3.07105300       0.44020700      -0.07570100
