16
Properties=species:S:1:pos:R:3 pbc="F F F"
C       -1.77837300      -0.01597800      -0.14439700
C       -0.24982200      -0.00694700      -0.29527400
C        0.15146200      -0.02960100      -1.77784100
C        0.47840000       1.05397300       0.55664600
O        1.12879900       0.03158300       1.33325000
C        0.49400200      -1.02669800       0.59265400
H       -2.22210000       0.85022600      -0.63307500
H       -2.06773800       0.00367500       0.90442600
H       -2.20794900      -0.90895600      -0.59612500
H       -0.24687900       0.83813300      -2.30168300
H       -0.23338800      -0.92097800      -2.27115600
H        1.23376900      -0.02326400      -1.89071900
H       -0.16253900       1.70225200       1.18315900
H        1.20728100       1.69364500       0.02449300
H       -0.13735000      -1.66251100       1.24130300
H        1.23248700      -1.67338100       0.08266100
