18
Properties=species:S:1:pos:R:3 pbc="F F F"
N       -1.41155800       1.20952600      -1.51981300
C       -1.73838500       0.11016400      -0.61132400
C       -1.04446800       0.31020700       0.74043400
N        0.42284600       0.34733000       0.62065100
C        1.04502400      -0.96246000       0.37643100
C        2.56186600      -0.86330300       0.45543100
H       -1.69809400       0.99455100      -2.47096700
H       -0.40745300       1.37541700      -1.50511300
H       -1.45437600      -0.87592400      -1.03550100
H       -2.82875200       0.07189100      -0.45770600
H       -1.37518200      -0.48659200       1.44116700
H       -1.36479200       1.26630000       1.17457200
H        0.82112400       0.75364400       1.47029600
H        0.74901400      -1.32656700      -0.61902300
H        0.68351900      -1.72494000       1.10065400
H        2.94629100      -0.15125400      -0.27181700
H        3.02311400      -1.82869800       0.25916900
H        2.88234500      -0.53347500       1.44257000
