12
Properties=species:S:1:pos:R:3 pbc="F F F"
C       -0.01527000       0.57158700       2.29503100
C       -0.52030900       0.40297600       0.87928300
O       -0.08883200       1.34570800      -0.08306400
C        0.39701300      -0.00373200      -0.23275300
C       -0.13860800      -0.74462800      -1.42748000
O        0.41033800      -1.70308500      -1.91749600
H       -0.59521200       1.33054500       2.81858100
H        1.02775800       0.87833500       2.30244200
H       -0.10496600      -0.35960700       2.85377100
H       -1.58496300       0.12468600       0.78530500
H        1.46499200      -0.12499500      -0.00254300
H       -1.11661300      -0.34717500      -1.83756500
