18
Properties=species:S:1:pos:R:3 pbc="F F F"
C       -2.47418300      -1.11263100       0.26424200
N       -1.01573700      -1.07165300       0.28052500
C       -0.47081600       0.18570600       0.81094500
C        1.06227300       0.19569600       0.78421500
C        1.68159500       0.23886500      -0.61879400
N        1.43589000       1.52076200      -1.28352400
H       -2.81003500      -2.05760700      -0.16897300
H       -2.92820100      -0.29003800      -0.31910300
H       -2.86491300      -1.04480300       1.28374000
H       -0.65173700      -1.24028900      -0.66002300
H       -0.81342300       0.30194400       1.85106500
H       -0.86775200       1.06786500       0.26218200
H        1.43314800      -0.69352800       1.30443100
H        1.41757300       1.06047000       1.35327400
H        1.30912200      -0.61757600      -1.22171100
H        2.76926800       0.09596000      -0.53406000
H        0.43880200       1.70616300      -1.35467800
H        1.83386900       1.52185700      -2.21880200
