21
Properties=species:S:1:pos:R:3 pbc="F F F"
C       -1.83664400       0.59511600      -1.31984300
C       -2.07065300      -0.59812500      -0.40269400
C       -1.45858400      -0.44801200       0.99789300
C        0.07673000      -0.52463300       1.04275100
C        0.77215800       0.72212200       0.56129700
C        1.94130600       0.78489400      -0.09186400
C        2.79462500      -0.36858500      -0.51853100
H       -2.31966200       0.43864300      -2.28250000
H       -0.77579000       0.75261200      -1.49750700
H       -2.24241500       1.50699600      -0.88587200
H       -1.67563200      -1.50413800      -0.87512500
H       -3.14966500      -0.75674700      -0.29408500
H       -1.85926900      -1.24740400       1.63182800
H       -1.79123200       0.49476800       1.44570400
H        0.42016400      -1.39997300       0.48229400
H        0.37287500      -0.70217800       2.08750700
H        0.27915200       1.66117800       0.81446700
H        2.33475000       1.76995100      -0.34367700
H        2.29380000      -1.32430200      -0.38711000
H        3.72207400      -0.39487700       0.05734800
H        3.07723300      -0.27119400      -1.56732400
