16
Properties=species:S:1:pos:R:3 pbc="F F F"
C       -1.19677600       1.46245300      -0.55429400
C       -1.33196300       0.75301900       0.78659600
C       -0.56872100      -0.57488200       0.86953500
O        0.85223100      -0.36953000       0.83591900
C        1.54945000      -0.56567600      -0.30040200
C        1.08968000      -0.92097600      -1.51707000
H       -1.75607800       2.39575400      -0.55125200
H       -1.57774600       0.84530700      -1.36532800
H       -0.15663400       1.69315900      -0.76847000
H       -2.38993100       0.55505200       0.99280100
H       -0.98070100       1.41325900       1.58586200
H       -0.87480700      -1.26880900       0.07123500
H       -0.78864500      -1.06388300       1.83451400
H        2.62112200      -0.40227300      -0.13516900
H        0.04359000      -1.08380000      -1.73088800
H        1.79195500      -1.05115300      -2.32684900
