14
Properties=species:S:1:pos:R:3 pbc="F F F"
C        0.95311800       0.84448000      -1.66392200
C        0.38028700      -0.08448800      -0.58974400
C       -1.15212900      -0.10681100      -0.62050300
O       -1.83915100      -0.42684700       0.32085400
C        0.91048300       0.26896700       0.82935800
O        0.46151800      -0.65669300       1.78810700
H        2.03789000       0.77281700      -1.69989700
H        0.69579500       1.88306300      -1.46311400
H        0.56582600       0.58933600      -2.64896400
H        0.70220600      -1.11473400      -0.81776000
H       -1.62790600       0.18481200      -1.60732900
H        0.59129700       1.30046100       1.09490600
H        2.01182700       0.25888800       0.82808900
H       -0.50642200      -0.73921100       1.71124600
