15
Properties=species:S:1:pos:R:3 pbc="F F F"
N       -1.35891100       0.88329700       0.95682700
C        0.08048800       0.73310600       1.03747900
C        0.93022500       1.43367400       0.01717200
C        0.78877000      -0.06467500      -0.02328300
C        0.01756100      -0.72951000      -1.15640200
O       -0.31607100      -2.07520000      -0.83706600
H       -1.67652800       1.68863600       1.49082700
H       -1.83542800       0.05180700       1.29918400
H        0.50579100       0.66301000       2.05516500
H        1.88386800       1.84679900       0.33194100
H        0.42164200       2.00430900      -0.75270200
H        1.66453100      -0.62592200       0.31413200
H        0.61958000      -0.70748000      -2.09267100
H       -0.92001300      -0.19401500      -1.35483600
H        0.47523600      -2.54419500      -0.54209300
