17
Properties=species:S:1:pos:R:3 pbc="F F F"
C        1.43233300       0.24206400      -1.39787900
C        0.80253600       0.37075400      -0.00473300
C       -0.75189800       0.45173800      -0.03439600
N       -1.20940800       0.76144100       1.33254300
C       -1.41546100      -0.82913600      -0.58616600
O        1.22780200      -0.71446500       0.83077300
H        2.51748500       0.24365700      -1.32666200
H        1.13520900       1.06932600      -2.03958200
H        1.13513200      -0.68446500      -1.88724600
H        1.18043700       1.28973200       0.47792600
H       -1.03628900       1.29275800      -0.69705600
H       -0.73330000       0.14803700       1.99209800
H       -2.21300200       0.62001700       1.41916800
H       -1.15926800      -1.69809800       0.01785300
H       -1.11072200      -1.02730600      -1.61193800
H       -2.49888500      -0.72822000      -0.57442100
H        1.02159500      -1.55232400       0.39492000
