16
Properties=species:S:1:pos:R:3 pbc="F F F"
C        1.86692800      -0.24082100       0.76963400
C        1.18085000      -0.89752100      -0.42096100
C       -0.25744200      -0.41646300      -0.66032000
C       -1.26841900      -0.45856300       0.49358700
C       -1.35588000       1.05215000       0.31807900
O       -0.37493200       1.03096800      -0.73621500
H        2.90410700      -0.56231800       0.84139100
H        1.37281500      -0.49778900       1.70506500
H        1.85081300       0.84136600       0.66742700
H        1.17192500      -1.98671200      -0.29470800
H        1.76488800      -0.69758900      -1.32540400
H       -0.64401300      -0.87936900      -1.59612800
H       -0.87289000      -0.79382300       1.45579700
H       -2.18908400      -1.01246500       0.29001400
H       -1.02590100       1.66411500       1.17806800
H       -2.32943500       1.44414600      -0.03191600
