17
Properties=species:S:1:pos:R:3 pbc="F F F"
C       -0.29421500       0.47418400       2.03028800
C       -0.67348500       0.49870100       0.56407800
C        0.17269000       1.26621700      -0.43117700
C        0.09421800      -0.24859500      -0.48923000
C       -0.67450700      -0.88637400      -1.63501500
N        1.25885300      -1.03877100      -0.09208200
H       -0.74958700       1.31089900       2.55963200
H        0.78249600       0.54537400       2.16818700
H       -0.63423300      -0.44347400       2.50981500
H       -1.74977300       0.56659600       0.39537500
H        1.08725000       1.71391500      -0.05631100
H       -0.34337200       1.85208800      -1.18557000
H       -1.53971500      -0.28692800      -1.90792000
H       -1.02282400      -1.88218600      -1.36461300
H       -0.04440500      -0.99023800      -2.51871000
H        1.74891200      -0.60187200       0.68330800
H        1.90507200      -1.13757400      -0.87228600
