15
Properties=species:S:1:pos:R:3 pbc="F F F"
C        1.12974200      -0.78423600      -0.02036600
C        1.14261800       0.76347900      -0.05724600
C       -0.38650100       0.99024900       0.00866400
C       -0.91344100      -0.01685400      -1.02962700
C       -0.40291600      -0.98215400       0.05551700
N       -0.81870300       0.03225400       1.07101000
H        1.64808200      -1.18871700       0.85425300
H        1.57877600      -1.23535100      -0.91007200
H        1.59857700       1.16414400      -0.96734800
H        1.66811000       1.20051400       0.79721000
H       -0.75582200       2.02657300       0.07217200
H       -0.44132000      -0.04418300      -2.01508300
H       -1.99984500      -0.01006000      -1.12404400
H       -0.78940500      -2.00800700       0.16799900
H       -0.19323400       0.04640600       1.88618800
