11
Properties=species:S:1:pos:R:3 pbc="F F F"
C       -0.93856300       1.60099900       0.34417000
C       -1.44205200       0.36948600       0.52934500
O       -0.73996900      -0.78947000       0.65266200
C        0.68093600      -0.72926900       0.58962100
C        1.16394800      -0.41504600      -0.76543200
N        1.57330600      -0.19502000      -1.81742700
H       -1.61146300       2.44230400       0.26360200
H        0.11980400       1.79541400       0.24389200
H       -2.51697600       0.18827200       0.61295000
H        1.05856800      -1.71982300       0.88734200
H        1.07106500       0.01771200       1.30668400
