21
Properties=species:S:1:pos:R:3 pbc="F F F"
C        0.99919800       2.33893300       1.66611000
C        0.05254300       1.23561500       1.20393400
C        0.13952400       0.98817300      -0.29753500
C        1.11531100      -0.00626100      -0.85938000
C       -0.35997400      -0.27800100      -0.93868300
C       -0.99168800      -1.40860800      -0.13534200
C       -0.97905200      -2.73449400      -0.88964700
H        0.90771200       2.50539600       2.73760800
H        0.78168400       3.27804700       1.16093400
H        2.03427500       2.08009900       1.45362800
H       -0.97580700       1.50874600       1.47181400
H        0.27882600       0.31370200       1.74830800
H        0.00214500       1.89240800      -0.89491000
H        1.69564500      -0.59303000      -0.15445700
H        1.64310200       0.24807400      -1.77387500
H       -0.80294700      -0.15019700      -1.92899000
H       -0.46549000      -1.52941000       0.81633500
H       -2.02729500      -1.14625500       0.11494800
H        0.03901600      -3.04521500      -1.11466800
H       -1.51754700      -2.65394000      -1.83193200
H       -1.44849100      -3.52056800      -0.30147700
