14
Properties=species:S:1:pos:R:3 pbc="F F F"
C       -0.86206600       0.04181900      -2.27649400
O       -1.55407500       0.46811000      -1.11582200
C       -0.92569400       0.37601300       0.07605900
C        0.33111600      -0.09215300       0.29389800
C        0.90519300      -0.14406100       1.62972900
C        2.13978400      -0.59468800       1.91335000
H       -1.52570200       0.19270100      -3.13260100
H       -0.59634400      -1.02353600      -2.20805200
H        0.05768000       0.62698200      -2.42448900
H       -1.55560200       0.73239800       0.89771200
H        0.94469400      -0.44288600      -0.53111400
H        0.26983100       0.21287400       2.44186800
H        2.79878500      -0.95704500       1.13415800
H        2.50925800      -0.60795200       2.92984600
