15
Properties=species:S:1:pos:R:3 pbc="F F F"
C       -1.71563700      -0.88107700       1.89173100
C       -0.86644300      -0.18228900       1.13327900
C       -0.94404500      -0.11659500      -0.34651000
C       -0.59407900       1.15858100      -1.06401500
C        0.32396700      -0.02263500      -1.18223000
C        1.62829200       0.00297900      -0.55233000
C        2.73375300       0.00728100      -0.06077900
H       -1.62006000      -0.89888600       2.96974300
H       -2.52609800      -1.45200100       1.45354300
H       -0.05935900       0.38182600       1.59930700
H       -1.74620800      -0.70709400      -0.79223800
H       -0.25850800       1.99873600      -0.46555100
H       -1.18424800       1.42737300      -1.93508000
H        0.30332800      -0.56153300      -2.13265400
H        3.69630400       0.01411200       0.38804800
