18
Properties=species:S:1:pos:R:3 pbc="F F F"
C       -1.34073100       1.96475100       0.58625000
C       -0.10830100       1.58063300      -0.22620400
C        0.48585900       0.24376500       0.20017400
C        1.37073900      -0.52152300      -0.74146000
C        0.00060000      -1.04147000      -0.40963000
C       -0.15769100      -2.28686100       0.43634000
H       -1.72874800       2.93115700       0.27077300
H       -1.10492400       2.02880600       1.64673200
H       -2.13364600       1.22952700       0.46629400
H        0.64977800       2.36694000      -0.12253700
H       -0.36749700       1.54222000      -1.28937500
H        0.76661400       0.19395100       1.25368000
H        2.22796400      -1.04060700      -0.32432700
H        1.53190500      -0.11484400      -1.73512700
H       -0.74257800      -0.94114900      -1.20260500
H        0.59533700      -2.32675900       1.22054900
H       -0.05907700      -3.18832000      -0.16858500
H       -1.13797600      -2.31669000       0.91170700
