18
Properties=species:S:1:pos:R:3 pbc="F F F"
C       -0.27034600      -2.41663800      -0.25185500
C       -0.55361400      -1.03182500       0.31663100
C       -0.03315900       0.12502200      -0.57073800
C       -0.59917500       1.48444800      -0.09522400
O       -0.11356000       1.85867100       1.18284200
C        1.49818600       0.16746600      -0.63402700
H       -0.69848400      -3.18732000       0.38570700
H        0.79817600      -2.60422600      -0.32917300
H       -0.70090100      -2.52578000      -1.24521200
H       -0.11447400      -0.95493500       1.31835500
H       -1.63595900      -0.91472800       0.44685400
H       -0.41442800      -0.04210000      -1.59161200
H       -1.71084200       1.44022600      -0.08190700
H       -0.31454000       2.28174500      -0.79873000
H       -0.20738600       1.11731000       1.79468900
H        1.91892200       0.37093400       0.34816700
H        1.83025300       0.95437000      -1.30824700
H        1.90678400      -0.77570500      -0.99035000
