16
Properties=species:S:1:pos:R:3 pbc="F F F"
C       -0.00602400       0.00091700       2.08919800
C       -0.52929500      -0.00156400       0.65282900
C       -0.07974600       1.23681300      -0.17087300
C        0.35682200       0.66888700      -1.49106000
C        0.36166900      -0.66771800      -1.49038300
C       -0.07079900      -1.23748400      -0.16962500
H       -0.34987000       0.88249100       2.62770500
H        1.08217900      -0.00070700       2.11277800
H       -0.35254300      -0.87719600       2.63165400
H       -1.62952900      -0.00542400       0.69651800
H        0.74662600       1.77259400       0.31576600
H       -0.88827300       1.96984000      -0.28316900
H        0.65022100       1.29386800      -2.32968500
H        0.65971100      -1.29133300      -2.32838500
H        0.75955000      -1.76662700       0.31752200
H       -0.87383400      -1.97660900      -0.28122200
