17
Properties=species:S:1:pos:R:3 pbc="F F F"
C       -3.42364900      -0.11053700      -0.00456100
C       -1.92409800      -0.19530400      -0.05568800
C       -1.11336000       0.80757600       0.30551300
C        0.39137900       0.79637800       0.28222300
C        1.02726100      -0.51404900      -0.20056900
C        2.48956400      -0.45702200      -0.18955400
C        3.69687800      -0.41517900      -0.18044200
H       -3.87858500      -1.03520300      -0.34934700
H       -3.80045700       0.69938000      -0.63004400
H       -3.77856700       0.07712100       1.00936000
H       -1.50118600      -1.13428900      -0.40926000
H       -1.55653400       1.74015300       0.65681400
H        0.76278900       1.02908400       1.28884700
H        0.74216100       1.62280200      -0.34988300
H        0.68864900      -0.74437000      -1.21907700
H        0.69966400      -1.34791300       0.43393400
H        4.75821900      -0.37794200      -0.17288300
