17
Properties=species:S:1:pos:R:3 pbc="F F F"
C       -1.28222400      -0.48569300       1.60770800
N        0.13883300      -0.70045000       1.36812700
C        0.85483100       0.38370900       0.67298400
C        0.57757000       0.54888400      -0.85515000
O       -0.66970200       1.21331400      -1.08978300
C        0.62685300      -0.77594600      -1.62866400
H       -1.65940400      -1.25232200       2.29189000
H       -1.90767800      -0.53050400       0.69455000
H       -1.43908300       0.49128300       2.06908000
H        0.29660200      -1.59635500       0.90319600
H        1.93517900       0.20898200       0.80357800
H        0.62384000       1.32961600       1.17739200
H        1.35608900       1.22485300      -1.25828400
H       -1.39667700       0.62782600      -0.83908300
H       -0.16514300      -1.45171600      -1.30801500
H        1.57998100      -1.28025800      -1.47973200
H        0.49990400      -0.60049400      -2.69447000
