16
Properties=species:S:1:pos:R:3 pbc="F F F"
C       -2.58707200      -0.56387400      -0.81604600
C       -1.07096200      -0.45188600      -0.89834900
C       -0.45204500       0.11813200       0.38189700
C        1.07852300       0.21485200       0.31158600
O        1.70881600      -0.16102400      -0.65570900
C        1.77311000       0.81585300       1.53634900
H       -2.99430200      -0.96892300      -1.73956200
H       -3.04461400       0.40893600      -0.64673900
H       -2.88852800      -1.21888100      -0.00092800
H       -0.79095000       0.18357600      -1.74300700
H       -0.63612300      -1.43526100      -1.09672200
H       -0.72453400      -0.49988300       1.24594000
H       -0.85904600       1.11385900       0.59422100
H        1.43764900       1.83922500       1.69995500
H        2.85132000       0.81934100       1.40687500
H        1.52927600       0.24774500       2.43300800
