15
Properties=species:S:1:pos:R:3 pbc="F F F"
N       -1.61359600      -0.37325800      -0.88290200
C       -0.14615100      -0.27802100      -0.76596300
C        0.31589400       1.16654100      -0.57942800
C        1.42672600       1.56256100       0.04395800
C        0.31683800      -1.21717700       0.36808300
O       -0.16853400      -0.78002700       1.62607600
H       -1.98646600       0.37823900      -1.45860400
H       -2.03266600      -0.31888600       0.04374100
H        0.29773600      -0.64530400      -1.71630200
H       -0.33114200       1.92437700      -1.02453500
H        2.11552100       0.85852700       0.49762100
H        1.68857000       2.61222800       0.10541700
H        1.42559100      -1.28248500       0.38408500
H       -0.07031500      -2.23099400       0.19778000
H        0.05677800       0.15388400       1.74260500
