14
Properties=species:S:1:pos:R:3 pbc="F F F"
C       -1.75132900       0.16721800      -0.18154900
C       -0.23133200       0.27032900      -0.36504100
C        0.32028400       1.51662100       0.34552900
O        1.34518700       1.53946000       0.97554100
C        0.52042700      -1.00819900       0.08510600
O        0.21354100      -2.11272700      -0.74385700
H       -2.24189200       1.09168500      -0.48237600
H       -2.01014400      -0.02695500       0.85794200
H       -2.16360200      -0.63942200      -0.78529200
H       -0.03373000       0.41956000      -1.44008200
H       -0.31322100       2.45155600       0.22159300
H        0.27173300      -1.23800000       1.14098300
H        1.60361500      -0.83917500       0.02608900
H       -0.73088800      -2.30892400      -0.69659400
