21
Properties=species:S:1:pos:R:3 pbc="F F F"
C       -2.67494300       1.16005300      -0.62158700
C       -1.16013200       0.99911400      -0.61681300
C       -0.66195200       0.19197400       0.59417900
C        0.84347900       0.02964000       0.63702600
C        1.55956600       0.49170800       1.67190400
C        1.52068400      -0.66857800      -0.52662600
C        0.99779100      -2.07898300      -0.79099700
H       -3.00084100       1.72822100      -1.49049300
H       -3.01694200       1.68353900       0.26913100
H       -3.17194400       0.19205300      -0.64830300
H       -0.68783500       1.98662000      -0.61597500
H       -0.84429400       0.50641000      -1.54210700
H       -1.13290300      -0.79924300       0.57576200
H       -1.00042000       0.67624000       1.51543700
H        1.08566700       1.00415600       2.50034600
H        2.63481400       0.36586000       1.71311000
H        2.59850800      -0.71055400      -0.34220500
H        1.38690500      -0.06571800      -1.43438800
H        1.11389200      -2.71071500       0.08693600
H        1.54516800      -2.53951300      -1.61112500
H       -0.05672500      -2.06691500      -1.05864500
