15
Properties=species:S:1:pos:R:3 pbc="F F F"
N       -2.74633600      -0.87044200       0.27923900
C       -1.48150900      -0.19470600       0.57000000
C       -0.73856600       0.14372600      -0.69654600
C        0.56926400       0.42922100      -0.77333200
C        1.52764600       0.45715100       0.39210000
O        2.87300300       0.31149400      -0.03279000
H       -3.23934700      -1.09867300       1.13818800
H       -2.58625400      -1.72873200      -0.24146000
H       -0.82906400      -0.79509500       1.24326700
H       -1.70375500       0.73061300       1.12863600
H       -1.33527300       0.16736400      -1.60722400
H        0.99430600       0.67815700      -1.74518100
H        1.26970900      -0.33516400       1.13080000
H        1.46084800       1.41773100       0.93261300
H        2.94815300      -0.44741100      -0.62532200
