16
Properties=species:S:1:pos:R:3 pbc="F F F"
C       -2.15214300      -0.59926100       0.76171500
C       -0.67390600      -0.59637400       0.54504100
C        0.04360000       0.28356200      -0.19262200
C        1.50691500       0.16184600      -0.34476700
C        2.30118800      -0.78388300       0.17770400
C       -0.57568200       1.44202600      -0.93503400
H       -2.38393500      -0.70927900       1.82218300
H       -2.61421200      -1.44886200       0.25270800
H       -2.63489600       0.30508900       0.40025500
H       -0.13891500      -1.40911200       1.03540100
H        1.97127500       0.93883300      -0.95329000
H        1.91656700      -1.58964600       0.79217800
H        3.36886200      -0.77001600      -0.00228400
H       -1.56432500       1.69519700      -0.56200100
H       -0.67311200       1.21166400      -1.99793700
H        0.05286500       2.32862900      -0.85942900
