18
Properties=species:S:1:pos:R:3 pbc="F F F"
C       -1.09897400      -0.44848000       2.41354900
C       -1.45110800      -0.88374200       0.99601800
C       -0.90017800       0.04406900      -0.09545000
C        0.63259900       0.01329300      -0.20970400
C        1.14427900       0.91509500      -1.29852600
C        1.96469500       0.52919000      -2.27623600
H       -1.54195900      -1.12294600       3.14337300
H       -1.46756500       0.55499200       2.61698500
H       -0.02281600      -0.44650800       2.57352400
H       -2.54137800      -0.92825500       0.89871600
H       -1.08617000      -1.90251800       0.82637700
H       -1.23035900       1.07129700       0.09368000
H       -1.33547700      -0.24661700      -1.05715000
H        0.97355300      -1.01246000      -0.38156300
H        1.06907000       0.33030800       0.74690100
H        0.81103400       1.95314500      -1.25914600
H        2.31491200      -0.49399600      -2.35001300
H        2.30927300       1.22701000      -3.02959100
