17
Properties=species:S:1:pos:R:3 pbc="F F F"
C       -1.21600500      -1.60003000      -1.02080300
C       -1.48191000      -0.09952500      -1.02604500
C       -0.80931800       0.65009600       0.13244100
C        0.71229800       0.62981800       0.06214700
C        1.52814300      -0.34165900       0.84449600
N        1.44268600       1.05965700       1.25782500
H       -1.72950900      -2.08515400      -1.84831800
H       -1.56526200      -2.05576100      -0.09648400
H       -0.15318100      -1.81250700      -1.11590700
H       -2.56241100       0.07332600      -0.98006800
H       -1.14433600       0.32517500      -1.97809400
H       -1.13433500       0.22709300       1.08750400
H       -1.15367500       1.69148500       0.12129000
H        1.13241100       0.96001100      -0.89810800
H        2.48097100      -0.68496100       0.43528300
H        1.03623500      -1.05173000       1.51074200
H        2.29504500       1.56322500       1.00397100
