16
Properties=species:S:1:pos:R:3 pbc="F F F"
C       -2.63919800       0.91978300       0.71348400
C       -1.49643800       0.55807600      -0.22931900
C       -0.75059900      -0.67742600       0.20556200
C        0.55700500      -0.91170700       0.02493700
C        1.54434200       0.01348100      -0.64347600
O        2.86407000      -0.20955700      -0.17060300
H       -3.17007600       1.80009000       0.35734800
H       -2.26902000       1.13302900       1.71388100
H       -3.35467600       0.10353700       0.79007400
H       -0.80791100       1.40556100      -0.32106800
H       -1.90516700       0.39589600      -1.23668800
H       -1.35139800      -1.44503500       0.69372300
H        0.96628600      -1.85985800       0.37291200
H        1.25874800       1.07747300      -0.49306100
H        1.55997000      -0.15550700      -1.73451600
H        2.87000900      -0.19196800       0.79509500
