14
Properties=species:S:1:pos:R:3 pbc="F F F"
C       -1.09802500      -0.51845800       1.31840900
C        0.35257800      -0.05333800       1.15761100
N        0.82053300       0.28463500      -0.20269300
C        0.35653900      -0.49151800      -1.34843400
C       -0.08832500       0.91786600      -1.15316700
H       -1.29756300      -0.73714800       2.36541400
H       -1.29772400      -1.42392000       0.74924800
H       -1.80659000       0.24354100       1.00017200
H        1.02181400      -0.83453000       1.55103200
H        0.51493100       0.83247100       1.79162400
H       -0.36399800      -1.29466800      -1.17952100
H        1.11857100      -0.71984600      -2.09730900
H       -1.12067500       1.10150300      -0.84776200
H        0.35089900       1.71283600      -1.76055800
