14
Properties=species:S:1:pos:R:3 pbc="F F F"
C       -1.41001400      -0.27338000       0.85379200
N        0.04940900      -0.37079500       0.87469000
C        0.69119600      -1.12678700      -0.20401300
C        0.82853700       0.36081800      -0.13545800
C        0.17242400       1.26958400      -1.15526500
H       -1.83654800      -1.07323400       1.46789300
H       -1.84725700      -0.35754000      -0.15328700
H       -1.72343900       0.68170800       1.28501600
H        0.04068100      -1.55036600      -0.97351400
H        1.52149400      -1.76918100       0.09837500
H        1.77501500       0.75410600       0.26046300
H       -0.69362000       0.80330600      -1.61863500
H        0.87716800       1.52184900      -1.94724900
H       -0.15221600       2.20350400      -0.69622700
