13
Properties=species:S:1:pos:R:3 pbc="F F F"
N       -1.88076600       0.81431300      -1.88601100
C       -0.41859700       0.77855900      -1.81747500
C        0.05325400       0.08171900      -0.61258600
C        0.47962600      -0.43583900       0.39980300
C        0.96281100      -1.13051700       1.55654600
C        1.22876200      -0.54773900       2.73396600
H       -2.18882800       1.37818000      -2.67380600
H       -2.27278900       1.19950500      -1.03093600
H        0.02709000       1.79944400      -1.83137600
H       -0.02964300       0.26551300      -2.71344700
H        1.11326300      -2.20554100       1.43305900
H        1.08938200       0.51540000       2.88525900
H        1.59175700      -1.12978600       3.57179900
