18
Properties=species:S:1:pos:R:3 pbc="F F F"
C        0.00364400      -2.36563100      -0.01137600
C       -0.23258600      -0.97568800       0.56543200
C        0.27815400       0.16924700      -0.33956800
C       -0.25725100       1.53151300       0.15735500
O       -1.67564000       1.56693000       0.16497400
C        1.80825800       0.19875300      -0.43562900
H       -0.42153000      -3.12753500       0.63868900
H        1.06520400      -2.57794100      -0.12145000
H       -0.45853600      -2.46714600      -0.99170300
H        0.24332800      -0.89989900       1.54859500
H       -1.30468900      -0.82988800       0.72955400
H       -0.12302400       0.00300500      -1.35422900
H        0.13876000       2.34642200      -0.48640900
H        0.08201300       1.73437200       1.18398400
H       -2.01202600       1.30965600      -0.70318900
H        2.25889700       0.35613200       0.54282900
H        2.13981100       1.00414400      -1.08925200
H        2.19559600      -0.73593100      -0.83449100
