16
Properties=species:S:1:pos:R:3 pbc="F F F"
C       -2.01069300       0.25829900       0.20077100
C       -0.61429000       0.69006900      -0.15021000
C       -0.08757700       1.83238400       0.31598300
C        0.18914100      -0.25073000      -1.02309500
C        0.81673800      -1.39906100      -0.20406300
O        1.73017500      -0.90634300       0.75428600
H       -2.48633000       0.96038700       0.88024100
H       -2.00590400      -0.72663900       0.66929900
H       -2.62570500       0.17934200      -0.69647200
H       -0.65912000       2.49440500       0.95448800
H        0.91490500       2.13908900       0.04424600
H        0.98709100       0.30087000      -1.52773700
H       -0.45329100      -0.67944000      -1.80002600
H        1.36221800      -2.08507300      -0.87072300
H        0.01570300      -1.99071700       0.29165600
H        1.34912200      -0.12724600       1.18442000
