16
Properties=species:S:1:pos:R:3 pbc="F F F"
C       -1.44127500       0.21855400      -0.35202800
N       -0.04355200      -0.07849100      -0.05547300
N        0.68806900      -0.84760400      -0.90749900
C        0.11426500      -1.54411400      -1.84585000
C        0.72527700       0.92019700       0.70278100
C        0.29519900       1.01319800       2.16726500
H       -2.05066200      -0.69266500      -0.32207000
H       -1.56676600       0.66842000      -1.35033500
H       -1.83082400       0.91372300       0.39181700
H        0.75009400      -2.17713100      -2.46376600
H       -0.96382100      -1.54913400      -2.05158900
H        0.64216600       1.92139100       0.23416000
H        1.78196300       0.63466400       0.64631700
H       -0.74470400       1.32125400       2.25922800
H        0.90565000       1.74123200       2.69610300
H        0.40448800       0.05390100       2.66792100
