16
Properties=species:S:1:pos:R:3 pbc="F F F"
N       -0.90700400       0.29711800      -1.48717900
C       -1.74100600       0.38120600      -0.29341300
C       -1.01146400       0.19398300       1.00991100
C        0.30181300       0.12227700       1.26401100
C        1.45180700       0.23777400       0.28630500
N        1.72280000      -1.04699600      -0.38347200
H       -1.48355100       0.28377100      -2.32423700
H       -0.33025100      -0.54230500      -1.46343000
H       -2.57128000      -0.36316400      -0.31727300
H       -2.24955700       1.36338000      -0.27638000
H       -1.68502800       0.10112600       1.86479900
H        0.59439600      -0.03531600       2.30390200
H        2.34540000       0.59502200       0.84020000
H        1.23915500       0.99347600      -0.48028000
H        1.86401800      -1.78279200       0.30407100
H        2.55922600      -0.97550300      -0.95769900
