14
Properties=species:S:1:pos:R:3 pbc="F F F"
O       -0.71717000      -0.87307100      -1.63608700
C       -0.52878800      -1.14755100      -0.25985400
C        0.11203300       0.04894700       0.42243400
O        0.30138400      -0.21467800       1.80377900
C        1.14203800       0.88822900      -0.27496600
C       -0.22911800       1.45387700       0.02061900
H       -1.12261800      -1.63418400      -2.07051400
H        0.10989000      -2.04722500      -0.13238400
H       -1.50183400      -1.38438900       0.22028100
H        0.71010800       0.55221500       2.22668200
H        1.36852000       0.66817400      -1.31233000
H        1.97439300       1.27398200       0.30612200
H       -0.89194800       1.60151700      -0.82483300
H       -0.29722100       2.21088700       0.79604300
