19
Properties=species:S:1:pos:R:3 pbc="F F F"
C       -1.15708500      -0.98157100      -2.38128000
C       -0.41921700      -0.20530200      -1.58813400
C        0.08169200      -0.61196100      -0.21359800
C       -0.53864000       0.31102100       0.85475700
C        0.04823700       1.63830700       1.22385200
C        0.06615500       0.51219500       2.21065600
C        1.61722600      -0.64136400      -0.19804000
H       -1.48829100      -0.64034100      -3.35482500
H       -1.44990000      -1.98159500      -2.08144500
H       -0.14244600       0.79510000      -1.92279400
H       -0.27584400      -1.63567600      -0.01063300
H       -1.62981500       0.28107500       0.84018900
H       -0.63195400       2.46448900       1.40644200
H        0.99293300       1.92942500       0.77675200
H       -0.60574700       0.57173800       3.06127500
H        1.02223500       0.04963300       2.43176100
H        2.03694900       0.33973200      -0.41074100
H        1.98690600      -1.33149000      -0.95319400
H        1.99476700      -0.97004700       0.76793700
