15
Properties=species:S:1:pos:R:3 pbc="F F F"
C       -1.53844100       0.54020300      -0.70874600
C       -0.00762000       0.45727000      -0.62780700
C        0.48321900       1.08298400       0.61263800
N        0.87266600       1.58067400       1.57428900
C        0.52735200      -0.98988000      -0.76698800
C        0.10779700      -1.91942300       0.36304000
H       -1.86831500       1.57663600      -0.69774200
H       -2.00614300       0.02993500       0.12960900
H       -1.89340100       0.07848700      -1.62778700
H        0.41078800       1.04496800      -1.46336400
H        1.61999500      -0.95213900      -0.81790100
H        0.18491400      -1.39330200      -1.72558400
H        0.42932100      -1.52982500       1.32604200
H        0.55281200      -2.90300000       0.23024100
H       -0.97247500      -2.04340400       0.39364000
