16
Properties=species:S:1:pos:R:3 pbc="F F F"
O       -1.99276400       0.02168900      -0.69731100
C       -0.56929700       0.04215700      -0.68383200
C        0.00962600       1.20332100       0.15334000
C        1.39307000       0.70198700       0.57105700
C        1.24709900      -0.82139500       0.74442800
C       -0.00962300      -1.24035400      -0.04196300
H       -2.32984400       0.84641900      -1.07095200
H       -0.20179300       0.13291000      -1.73476700
H       -0.61743700       1.37081200       1.03353400
H        0.05390500       2.14739800      -0.39830700
H        1.75553200       1.18731300       1.48078700
H        2.12129200       0.92240300      -0.21615200
H        1.13775700      -1.07610900       1.80221700
H        2.14059700      -1.34507300       0.39388100
H       -0.75895600      -1.67283200       0.62446800
H        0.21581500      -2.00105000      -0.79440700
