19
Properties=species:S:1:pos:R:3 pbc="F F F"
C       -1.12140500      -1.83536200       1.84475800
C       -0.03232000      -2.08865600       0.84126700
C        0.38115100      -1.21689400      -0.09228100
C       -0.16269800       0.15002100      -0.29614100
C       -0.23228400       0.72377700      -1.69088600
C        0.76301500       1.27062600      -0.71756900
C        0.58778000       2.65799000      -0.14009300
H       -1.21507600      -2.67295800       2.53097300
H       -2.08969100      -1.69406000       1.36162100
H       -0.92533800      -0.94034700       2.43613700
H        0.44965000      -3.06365100       0.88622500
H        1.18292300      -1.51637600      -0.76749200
H       -0.97816700       0.43297700       0.36927000
H       -1.09600500       1.33369600      -1.93651300
H        0.13661600       0.11215900      -2.50847000
H        1.80134800       0.98390900      -0.89266700
H       -0.46403900       2.88855400       0.01507100
H        1.00103500       3.41485200      -0.80707500
H        1.09730800       2.75223200       0.81859900
