13
Properties=species:S:1:pos:R:3 pbc="F F F"
C       -1.57158500       0.45652300       0.08918300
C       -0.03603000       0.42229300       0.09036500
C        0.47808500       0.15999100       1.44384700
N        0.89109800      -0.05197000       2.49667200
C        0.53539800      -0.62740100      -0.90805500
O        0.22776700      -0.28608700      -2.24245500
H       -1.94261300       1.19813800       0.79242500
H       -1.98685500      -0.51009800       0.36742000
H       -1.94586000       0.71474300      -0.89991500
H        0.33560700       1.41458200      -0.21224500
H        0.14014200      -1.63417000      -0.66482800
H        1.62999800      -0.66659300      -0.82117200
H       -0.72544600      -0.33254800      -2.39078100
