14
Properties=species:S:1:pos:R:3 pbc="F F F"
O       -0.61037700       1.21548100       1.76212000
C       -1.12252800       0.49054500       0.94797200
C       -0.52051300       0.15463100      -0.41086200
C        0.94817900       0.55660900      -0.63043200
C        1.31432400      -0.91086600      -0.88273600
C       -0.13741500      -1.33028000      -0.61875100
H       -2.12296800      -0.00894200       1.15760400
H       -1.20311800       0.52183600      -1.19207200
H        1.40984900       0.99527400       0.25721100
H        1.11790700       1.22792600      -1.47549400
H        2.04311800      -1.32932000      -0.18487800
H        1.66044200      -1.11965100      -1.89766700
H       -0.27454600      -1.95799200       0.26587200
H       -0.63995400      -1.81681400      -1.45868100
