17
Properties=species:S:1:pos:R:3 pbc="F F F"
C       -1.75638400      -0.16764000       1.12641800
C       -0.23853500      -0.07935300       1.02737500
C        0.30845200      -0.27093900      -0.40633600
C       -0.11272200       0.86666000      -1.34557000
C        1.83646800      -0.41199000      -0.38089700
H       -2.07791700      -0.08687300       2.16293100
H       -2.11990900      -1.11686800       0.73698100
H       -2.24028800       0.62949600       0.56614200
H        0.20424600      -0.84481000       1.67394200
H        0.09837400       0.88558900       1.42040300
H       -0.11042600      -1.20962000      -0.80399300
H        0.26401600       1.82492800      -0.99315600
H       -1.19553700       0.93835800      -1.41857000
H        0.28006400       0.70162200      -2.34694300
H        2.30661500       0.49073700       0.00452400
H        2.22661200      -0.58997900      -1.38084000
H        2.14047700      -1.24300800       0.25264400
