13
Properties=species:S:1:pos:R:3 pbc="F F F"
O       -0.65446200       1.83010500      -0.39725500
C       -1.06299400       0.75217400       0.42355700
C       -0.57053400      -0.56959100      -0.17331500
C        0.92952900      -0.65449800      -0.22059200
C        1.64307500      -1.67042100       0.26565500
H       -0.93572200       2.66717100      -0.00689600
H       -2.17209000       0.73760600       0.50952000
H       -0.66964100       0.88692800       1.45322100
H       -0.96531700      -0.65498600      -1.19385900
H       -0.98346400      -1.40744300       0.39830800
H        1.43554800       0.18559700      -0.69411800
H        1.16802300      -2.51910400       0.74474600
H        2.72390700      -1.68258800       0.19529200
