21
Properties=species:S:1:pos:R:3 pbc="F F F"
C        0.25643100       0.84731400      -1.64097400
C       -0.32543000      -0.13758800      -0.61878800
C       -1.85884300       0.03523700      -0.51565000
C       -2.55859000      -1.07467200       0.25908900
C        0.36215200       0.02354900       0.75967600
C        1.83935200      -0.25200100       0.71517900
C        2.77434200       0.54723000       1.23090500
H        1.33282800       0.72014400      -1.73135000
H        0.06612800       1.87703700      -1.34442500
H       -0.18644200       0.69518900      -2.62369200
H       -0.12125800      -1.15949900      -0.97877800
H       -2.08713200       1.00270400      -0.05575700
H       -2.27332000       0.07426600      -1.52873300
H       -2.23635800      -1.10383400       1.29790400
H       -2.35293300      -2.04896700      -0.18029500
H       -3.63622300      -0.92501200       0.25233800
H       -0.10106500      -0.67860300       1.46598500
H        0.17972600       1.02795800       1.15450200
H        2.13940700      -1.18548700       0.23662800
H        2.51531400       1.48287400       1.71286500
H        3.82484800       0.28681300       1.18619100
