11
Properties=species:S:1:pos:R:3 pbc="F F F"
O       -1.17918900      -0.00030700       0.11268100
C       -0.36710900      -1.17472600       0.03499700
C        1.03531500      -0.66756200      -0.09881200
C        1.03497300       0.66809900      -0.09891100
C       -0.36771400       1.17453200       0.03495200
H       -0.68322200      -1.80110500      -0.82725000
H       -0.51374800      -1.80100000       0.94158700
H        1.90859100      -1.30701500      -0.18161700
H        1.90791600       1.30800800      -0.18186200
H       -0.68422500       1.80078800      -0.82723300
H       -0.51459300       1.80071800       0.94156900
