19
Properties=species:S:1:pos:R:3 pbc="F F F"
C       -0.46540400       1.73113100       1.08796200
C       -0.88598500       0.26817600       1.05328000
C       -0.29763100      -0.53709000      -0.13359000
C       -0.79166400      -0.01536600      -1.42080700
C       -1.19885700       0.39389700      -2.48236500
C        1.25050100      -0.60333300      -0.14258700
C        1.83697900      -1.29406800       1.08128400
H       -0.96426600       2.25218600       1.90279200
H       -0.72487100       2.23154200       0.15787500
H        0.60777900       1.83242800       1.23643100
H       -1.97769700       0.20848500       0.99839600
H       -0.59830000      -0.22102700       1.98982900
H       -0.67560200      -1.57177800      -0.04008500
H       -1.55659100       0.75805200      -3.41376200
H        1.66131500       0.40668000      -0.22870400
H        1.56581100      -1.13985300      -1.04287500
H        1.62205400      -0.74245000       1.99394800
H        2.91804400      -1.37545400       0.99047300
H        1.43469500      -2.29890300       1.19661200
