16
Properties=species:S:1:pos:R:3 pbc="F F F"
C       -0.64344600       0.72751000       1.98464200
C       -1.11803200       0.68359000       0.54735300
N       -0.29975100       1.29868900      -0.50916800
C       -0.46906500      -0.16570000      -0.50038100
C        0.74335500      -1.05906200      -0.22573100
N        1.52455800      -1.34597500      -1.43829300
H       -0.92065800       1.67229100       2.45163100
H        0.43745400       0.62728300       2.05783200
H       -1.09612100      -0.07160400       2.57178800
H       -2.19194900       0.87479900       0.42894700
H        0.62156100       1.54636100      -0.13770200
H       -1.11552100      -0.52594200      -1.31137700
H        1.40592300      -0.58522200       0.51115200
H        0.41464600      -2.01562800       0.20784900
H        1.84555800      -0.47788900      -1.86108000
H        0.94858400      -1.83148400      -2.12210800
