16
Properties=species:S:1:pos:R:3 pbc="F F F"
C       -2.56093300       0.93064400       0.00853200
C       -1.39093100       0.44352000      -0.44016000
O       -0.46314400      -0.09057600       0.38563300
C        0.79621500      -0.47486800      -0.20893500
C        1.66908300       0.76729900      -0.42784300
C        1.45547100      -1.49929500       0.71198200
H       -3.28391400       1.33056300      -0.68604600
H       -2.79897400       0.92735300       1.06257900
H       -1.13824000       0.44094300      -1.51250300
H        0.58510000      -0.94633300      -1.19521700
H        1.87827600       1.26441600       0.51651000
H        1.16728800       1.48001900      -1.07926300
H        2.61796300       0.49669100      -0.88643300
H        1.65818400      -1.06695800       1.68919300
H        2.39759500      -1.84399900       0.29146200
H        0.80844500      -2.36188500       0.85320000
