18
Properties=species:S:1:pos:R:3 pbc="F F F"
C       -0.95900800       1.94212100       0.25469900
C        0.13323800       1.30182700      -0.61015600
C       -0.60194500      -0.05161800      -0.52789800
C       -1.57601900       0.56119100       0.50511300
C        0.16745800      -1.29968400      -0.10306600
C        1.60546000      -1.49416600      -0.44162600
N        1.19486300      -1.22862000       0.93854900
H       -1.61308800       2.61826500      -0.30071200
H       -0.60672400       2.47027800       1.14437900
H        1.11771300       1.30210100      -0.13408800
H        0.24673100       1.71468800      -1.61603300
H       -1.12269400      -0.27074500      -1.47309800
H       -1.41672100       0.19336700       1.52109200
H       -2.63951500       0.46490000       0.27020500
H       -0.45781200      -2.19995000      -0.03708300
H        2.13513100      -0.69709500      -0.96768000
H        1.99106100      -2.49770100      -0.62912100
H        1.38677100      -0.25579400       1.18990400
