14
Properties=species:S:1:pos:R:3 pbc="F F F"
C       -2.25999000       0.20167100      -0.82296700
O       -0.85929600       0.02016800      -0.79293000
C       -0.19028600       0.90927700       0.07728300
O        1.20015200       0.68607800      -0.01553300
C        1.71338600      -0.46509900       0.49179800
C        1.03440000      -1.45780900       1.09176800
H       -2.68296400      -0.52595200      -1.52037400
H       -2.52647700       1.22077100      -1.15840300
H       -2.70777200       0.04616100       0.17569200
H       -0.54681200       0.77981000       1.13524900
H       -0.37756900       1.97168700      -0.21630300
H        2.80126100      -0.50048100       0.37437500
H       -0.04104000      -1.44794200       1.19258600
H        1.56946500      -2.32226400       1.45760000
