12
Properties=species:S:1:pos:R:3 pbc="F F F"
C       -1.89791100       0.18823500      -1.01963400
C       -0.37670100       0.09763300      -0.94252800
N        0.13941900       0.66688000       0.29975600
C        1.05229000       0.00046500       1.08176700
O        1.50450300      -1.10632400       0.81376400
H       -2.25906000      -0.24466100      -1.94902800
H       -2.23137900       1.22412700      -0.98005700
H       -2.36464700      -0.34508700      -0.19459000
H        0.06851200       0.61240700      -1.81439500
H       -0.04327700      -0.94528700      -0.97818200
H       -0.19420900       1.58310800       0.58116700
H        1.34602800       0.57982800       2.00905200
