16
Properties=species:S:1:pos:R:3 pbc="F F F"
C       -0.85889600       1.86719300       0.31733400
C       -1.11517400       0.35977700       0.44393600
N       -0.54476200      -0.44622100      -0.65076000
C        0.92342800      -0.55200800      -0.67272000
C        1.47180000      -1.39553500       0.47383800
H       -1.30366400       2.40460500       1.15237500
H       -1.28957100       2.26042500      -0.60196200
H        0.20628100       2.08813700       0.30676700
H       -2.20159300       0.18150000       0.46760600
H       -0.71773100      -0.00522100       1.39909700
H       -0.86775600      -0.07297500      -1.54631600
H        1.41551900       0.44362300      -0.66326700
H        1.20050800      -1.01974800      -1.62875300
H        1.29355300      -0.92322800       1.43776300
H        2.54571400      -1.53229100       0.36491800
H        1.00512500      -2.37784200       0.49276500
