18
Properties=species:S:1:pos:R:3 pbc="F F F"
N        1.65159400      -0.12899200       0.03023500
C        0.77153800      -1.19631400       0.53263300
C       -0.46482200      -1.49454200      -0.34285700
C       -1.59069800      -0.50810000      -0.16365300
C       -1.46976500       0.78473600       0.16386700
C       -0.18276800       1.54388900       0.37169500
C        0.97909700       1.06462700      -0.50360200
H        2.27776600      -0.50546400      -0.68484300
H        0.43533600      -0.94930900       1.55193400
H        1.38345400      -2.10534400       0.61928900
H       -0.83940200      -2.49512000      -0.09480800
H       -0.16991200      -1.54475500      -1.40060100
H       -2.59534700      -0.90954200      -0.30227800
H       -2.38338900       1.36767100       0.28623100
H        0.11012600       1.50983100       1.42982000
H       -0.37140600       2.60190900       0.15362600
H        1.72805500       1.87157000      -0.58292100
H        0.60806700       0.89572300      -1.53559900
