15
Properties=species:S:1:pos:R:3 pbc="F F F"
C       -0.78972900       0.40799700       1.65315500
C       -1.08404600       0.66171300       0.19200600
N       -0.07635500       1.29984300      -0.65479600
C       -0.41175000      -0.10776700      -0.91890800
C        0.56580800      -1.20183300      -0.66740600
C        1.75473600      -1.08938600      -0.06704600
H       -1.51049200      -0.28931700       2.07910000
H       -0.85101000       1.33330600       2.22608300
H        0.20583200      -0.00736000       1.79294600
H       -2.10699500       1.00498000      -0.01020600
H        0.81764700       1.36258900      -0.16054200
H       -1.00937400      -0.25277100      -1.82741100
H        0.25686300      -2.18322700      -1.03105700
H        2.12717300      -0.13898800       0.29837100
H        2.39472900      -1.95244600       0.06548500
