15
Properties=species:S:1:pos:R:3 pbc="F F F"
O       -2.52244200       0.80178000       0.37558600
C       -1.11512300       0.96929400       0.40250500
C       -0.46238700      -0.12098200      -0.44291400
N        1.00333300       0.03714200      -0.44612000
C        1.73199500      -0.61577100       0.64256800
C        1.78536100      -1.16329700      -0.74113200
H       -2.94643600       1.49096800       0.90254000
H       -0.74629600       0.92243200       1.45014600
H       -0.84315200       1.97515600       0.01886200
H       -0.82583400      -0.04852200      -1.47813800
H       -0.76641900      -1.11650000      -0.06695400
H        1.14765300      -1.15850800       1.38991400
H        2.58382700      -0.06122800       1.04069300
H        1.23812300      -2.08537100      -0.95175100
H        2.67566100      -1.00813100      -1.35331900
