12
Properties=species:S:1:pos:R:3 pbc="F F F"
C       -1.53349000      -0.45477100       0.36051000
C        0.00067700      -0.39574600       0.35366200
C        0.50025100       0.02089800      -0.96931600
N        0.89478800       0.33832100      -2.00229100
C        0.54387200       0.52723600       1.45382100
H       -1.89898900      -1.13920800      -0.40125100
H       -1.96287300       0.52572700       0.16905600
H       -1.89243000      -0.79787000       1.32829900
H        0.38778000      -1.41344600       0.53227300
H        0.20328000       1.54970600       1.30909500
H        1.63120300       0.52959200       1.45662200
H        0.20065500       0.19155100       2.42987600
