18
Properties=species:S:1:pos:R:3 pbc="F F F"
C       -2.59096200      -0.60518100       0.65733900
C       -1.06797100      -0.62184500       0.65867800
C       -0.47181000       0.28316700      -0.43433700
C        1.04280600       0.28282600      -0.44355700
C        1.73791400      -0.29494200      -1.43328800
C        1.72973400       0.97256000       0.70306200
H       -2.98548700      -1.25665600       1.43434600
H       -2.98572200      -0.94585400      -0.29783900
H       -2.97274600       0.39838700       0.83513800
H       -0.71325200      -1.64698400       0.51336500
H       -0.69999600      -0.30363700       1.63966600
H       -0.83423100       1.30741100      -0.28241200
H       -0.84444000      -0.04164300      -1.41056400
H        1.23733700      -0.78683500      -2.25812700
H        2.82082100      -0.28890500      -1.43695600
H        1.43178500       2.02055600       0.75762600
H        2.81122900       0.92915400       0.60332300
H        1.45643800       0.51549200       1.65505200
