11
Properties=species:S:1:pos:R:3 pbc="F F F"
C       -2.51998100      -0.40915600      -0.39515200
C       -1.31413900      -0.36474500      -0.37021800
C        0.16431600      -0.33782500      -0.36579000
C        0.68064900       0.99844200      -0.73247300
C        1.11747000       2.07601100      -1.05590500
C        0.70718100      -0.78665300       0.93436600
C        1.16675100      -1.18135000       1.97817000
H       -3.58237800      -0.43377400      -0.40257700
H        0.51427100      -1.05504200      -1.13810400
H        1.49244000       3.03346700      -1.32438300
H        1.56218600      -1.51299800       2.90708600
