17
Properties=species:S:1:pos:R:3 pbc="F F F"
C       -1.00788100       0.44419600       2.30366000
O       -1.19734700      -0.62911700       1.40445100
C       -0.76162600      -0.37544500       0.06617800
C        0.76894100      -0.37055400      -0.06297300
C        1.24773300      -0.28747500      -1.51707400
N        0.94733500       1.01429500      -2.11936700
H       -1.50157400       0.18688600       3.24663000
H       -1.44714800       1.37989200       1.91258500
H        0.06243300       0.63083000       2.50803800
H       -1.18786900       0.58607100      -0.28825200
H       -1.19124900      -1.17550800      -0.55905300
H        1.16454000      -1.28553200       0.38941500
H        1.18838200       0.46522800       0.50545400
H        0.80341500      -1.12410900      -2.09873800
H        2.33654000      -0.43753100      -1.54983000
H       -0.05405900       1.18972600      -2.12974100
H        1.29102100       1.05258000      -3.07528900
