13
Properties=species:S:1:pos:R:3 pbc="F F F"
C       -3.74013100      -0.00039200       0.37551100
C       -2.52347200      -0.00031400       0.35915800
C       -1.13715800      -0.00018900       0.34797200
C        0.08227200      -0.00006000       0.32479500
C        1.53053400       0.00015200       0.34658100
C        2.30529600      -0.74527100      -0.70833700
C        2.30504800       0.74589000      -0.70829700
H       -4.80241300      -0.00046400       0.38574800
H        1.95980800       0.00019200       1.35207500
H        1.74457600      -1.25197600      -1.48587100
H        3.20998100      -1.25686300      -0.39525100
H        1.74415000       1.25244300      -1.48580300
H        3.20956200       1.25777200      -0.39519300
