17
Properties=species:S:1:pos:R:3 pbc="F F F"
C       -1.92244200       0.42648900      -0.65070300
C       -0.39190100       0.54818200      -0.63156000
C        0.14749400       0.36328100       0.79549900
N        1.57330100       0.08100300       0.97294300
C        0.59823800      -0.94342700       1.35198200
C        0.25276100      -0.40400500      -1.64333500
H       -2.37932600       1.13007500       0.04318900
H       -2.24110600      -0.57540300      -0.36908000
H       -2.31393700       0.63313700      -1.64446700
H       -0.13928200       1.57822800      -0.93772100
H       -0.28713000       1.06693000       1.52015900
H        1.94001500       0.55648400       1.80010500
H        0.46315500      -1.13349900       2.41935700
H        0.59648100      -1.83783300       0.72840000
H       -0.04162800      -1.43564100      -1.46040600
H        1.33660900      -0.34602100      -1.58553800
H       -0.05184700      -0.14660400      -2.65589800
