19
Properties=species:S:1:pos:R:3 pbc="F F F"
C       -2.15905400       0.00058300      -0.22657100
C       -0.78522400      -0.00382400      -0.90516100
C        0.06926800       1.24570600      -0.54224100
C        1.21793500       0.74966200       0.32316000
C        1.21593800      -0.74877900       0.33143800
C        0.06634700      -1.25145300      -0.52901100
C        0.86042200       0.00788400       1.57811900
H       -2.72579200       0.88733200      -0.50601700
H       -2.07170400      -0.01037600       0.85799700
H       -2.73863400      -0.87240400      -0.52250000
H       -0.96371400      -0.00904800      -1.99181300
H       -0.53145400       2.01116700      -0.03883700
H        0.46575700       1.71259800      -1.45078300
H        2.15394900       1.30864700       0.30797600
H        2.15050800      -1.31032000       0.32281600
H       -0.53633400      -2.00992600      -0.01745600
H        0.46206600      -1.72911200      -1.43226900
H        1.59341000       0.01137100       2.37943800
H       -0.17184100       0.01139400       1.91304700
