13
Properties=species:S:1:pos:R:3 pbc="F F F"
O       -1.25206000      -1.61659600       0.28825600
C       -1.62931500      -0.45486700       0.22390200
N       -0.79433100       0.64133600       0.23832100
C        0.63969200       0.54122300       0.42335900
C        1.42333600      -0.36441500      -0.47093500
C        1.54091800       1.11949200      -0.63067200
H       -2.72197100      -0.16648800       0.12694300
H       -1.20656000       1.57033000       0.23506600
H        0.97582200       0.63260200       1.46681700
H        0.87878000      -0.91501700      -1.22847600
H        2.26383900      -0.89615500      -0.03764500
H        1.07843000       1.57192700      -1.50182000
H        2.46067100       1.59762000      -0.30909600
