12
Properties=species:S:1:pos:R:3 pbc="F F F"
C       -0.67718700      -0.65243500       0.43391200
C        0.74913700      -0.16017200       0.22012400
C        1.14382500       1.23225100       0.51741600
O        1.48298600       0.16689100       1.39778000
C       -1.53722600      -0.54842600      -0.82202600
O       -1.15370100      -0.09402200      -1.86923400
H       -0.67504900      -1.69850400       0.76739700
H       -1.15906900      -0.08691600       1.23983800
H        1.32778700      -0.71889400      -0.53178200
H        0.40562300       1.94196400       0.91164200
H        1.99175900       1.68955300      -0.00674200
H       -2.59662400      -0.93745700      -0.70527200
