16
Properties=species:S:1:pos:R:3 pbc="F F F"
C        0.34404800      -2.26871400      -0.97459000
O       -0.02387400      -0.93367000      -0.67993500
C        0.48112900      -0.46659700       0.57447400
C       -0.04382600       0.96183700       0.78772900
O       -1.46603400       0.93955300       0.64167400
C        0.57873800       1.96564000      -0.19561000
H       -0.09510700      -2.53791700      -1.93963600
H       -0.02525400      -2.96605700      -0.20179600
H        1.44133300      -2.37795000      -1.03559100
H        1.59129700      -0.50046500       0.57579500
H        0.13675800      -1.13926100       1.38676800
H        0.17355200       1.28302400       1.82547100
H       -1.66221600       0.38525300      -0.13018700
H        0.41170300       1.65109600      -1.22346000
H        1.65259900       2.05301600      -0.03734300
H        0.13407000       2.94920000      -0.06595200
