17
Properties=species:S:1:pos:R:3 pbc="F F F"
C       -1.07105100      -1.05843200       1.13695000
C       -0.91674900       0.18806100       0.31074700
C       -1.38144600       1.37221400       0.73349100
C       -0.23536300       0.04541200      -1.03468000
C        1.16936900      -0.57273700      -0.96927500
N        2.05208700       0.19469100      -0.09162300
H       -1.67703200      -0.87502800       2.02067500
H       -0.09802000      -1.42625900       1.46378900
H       -1.53730800      -1.85677100       0.55821000
H       -1.88367700       1.47021800       1.68787200
H       -1.26257600       2.26828800       0.13686600
H       -0.17758300       1.02718400      -1.51631300
H       -0.85668100      -0.58434200      -1.68552400
H        1.57035600      -0.64224100      -2.00411200
H        1.10900100      -1.60677400      -0.59751800
H        2.05709200       1.17692300      -0.35310200
H        3.00325400      -0.16113700      -0.13288200
