16
Properties=species:S:1:pos:R:3 pbc="F F F"
C       -2.07019400       0.18441900      -0.51565000
C       -0.62674800      -0.03811600      -0.94867200
C        0.16719200      -1.15885000      -0.26447500
C        1.11784000      -0.04907500       0.20387200
O        0.28232300       0.96678300      -0.41851400
C        1.28869400       0.16373400       1.70274200
H       -2.70938100      -0.62044400      -0.87584800
H       -2.44842900       1.12243700      -0.91627200
H       -2.15345400       0.22522700       0.56825000
H       -0.56275600      -0.06396900      -2.05901000
H        0.60284000      -1.90838400      -0.93081100
H       -0.36563500      -1.67675400       0.53704000
H        2.11386200      -0.08158900      -0.29075700
H        0.32515300       0.20832100       2.20597000
H        1.81378200       1.09641400       1.89824100
H        1.86473500      -0.64819300       2.14440900
