12
Properties=species:S:1:pos:R:3 pbc="F F F"
N       -2.02804100       0.27615000       1.17371300
C       -0.98455000       0.62269200       0.83312700
C        0.35101700       1.07601100       0.40445900
N        1.07924500       0.14001600      -0.46776000
C        0.90203200      -1.29510200      -0.23045800
C        0.29981300      -0.64676100      -1.42718600
H        0.95693900       1.27201200       1.30315500
H        0.24078100       2.03906000      -0.11862700
H        0.24183400      -1.59598400       0.58457400
H        1.80600400      -1.89659400      -0.33936700
H       -0.78058200      -0.49513900      -1.44628600
H        0.76672300      -0.77756100      -2.40477100
