14
Properties=species:S:1:pos:R:3 pbc="F F F"
C       -3.25946100      -0.35294300       0.37771100
C       -1.80232400      -0.34555700       0.37581400
C       -0.59258500      -0.34731600       0.38013300
C        0.87266000      -0.34317200       0.37297400
C        1.45713800       0.58532000      -0.70874000
O        2.87359000       0.56883300      -0.67652200
H       -3.65049200      -0.03308100      -0.58971900
H       -3.65052200       0.32192700       1.14109600
H       -3.64174200      -1.35424800       0.58340900
H        1.24175100      -1.36479700       0.21553500
H        1.24145300      -0.03204500       1.36134500
H        1.08317800       1.61983300      -0.56694900
H        1.14623300       0.25616700      -1.70965700
H        3.18885000       0.85758400       0.18976700
