13
Properties=species:S:1:pos:R:3 pbc="F F F"
C       -2.68293000      -0.26144500      -0.96208100
C       -1.68965300       0.46297300      -0.44925200
C       -0.72243500      -0.04309500       0.59838800
N        0.64284900       0.39427900       0.34290100
C        1.72996000      -0.44814500       0.30853600
O        2.87063700      -0.05089600       0.10660200
H       -3.36293200       0.15739500      -1.69373400
H       -2.84331300      -1.29252900      -0.66739500
H       -1.55261400       1.49639400      -0.76764700
H       -0.73529200      -1.13964800       0.64392500
H       -1.05742500       0.31478100       1.59514500
H        0.80639000       1.38485500       0.17884500
H        1.47049700      -1.53576300       0.48418900
