11
Properties=species:S:1:pos:R:3 pbc="F F F"
N       -2.54684200       0.00389300      -0.41778000
C       -1.39896400       0.00223400      -0.50629500
C        0.05880700       0.00014800      -0.61016200
C        0.82191500       1.03722200       0.23061500
O        1.53452000      -0.00259800       0.91983100
C        0.81890400      -1.03980100       0.22979100
H        0.34079000       0.00016000      -1.67339600
H        0.20976300       1.64461000       0.91962300
H        1.49858200       1.70637900      -0.33053300
H        0.20500000      -1.64596700       0.91831700
H        1.49362800      -1.71046600      -0.33189300
