19
Properties=species:S:1:pos:R:3 pbc="F F F"
C       -1.53473500       0.77433800      -0.05079200
C       -1.52980900      -0.78209500       0.07477000
C       -0.21380200      -1.44206500       0.60557800
C        0.85741700      -0.72966300      -0.19769900
C        0.85668400       0.73400900       0.18425700
C       -0.23056700       1.44094400      -0.60214400
C        2.15668800       0.00545300      -0.01682100
H       -1.72399500       1.19809400       0.94214900
H       -2.39148900       1.06255800      -0.67026200
H       -1.73247600      -1.20684600      -0.91509500
H       -2.37527000      -1.07462000       0.70759400
H       -0.25732500      -2.52575600       0.43486400
H       -0.09545500      -1.28152000       1.68143300
H        0.65030200      -0.84741700      -1.26579700
H        0.66563500       0.85073000       1.25545900
H       -0.12828300       1.28095900      -1.67973000
H       -0.27690000       2.52440700      -0.43072000
H        2.75432100      -0.11734800       0.88332800
H        2.73968000       0.13123100      -0.92611400
