17
Properties=species:S:1:pos:R:3 pbc="F F F"
C       -2.51704600       0.09397900      -1.17284300
C       -1.00161500       0.22879200      -1.10744900
C       -0.40125400      -0.46043400       0.12265800
N        1.06941100      -0.36046300       0.11428900
C        1.64595300       0.85002700       0.69801000
C        1.73473900      -0.45336600       1.41311700
H       -2.91372700       0.58135800      -2.06110800
H       -2.99041900       0.54722500      -0.30346400
H       -2.81653400      -0.95220500      -1.20365500
H       -0.72768600       1.28938100      -1.09828000
H       -0.55579000      -0.19438000      -2.01319900
H       -0.67666300      -1.52653900       0.12077400
H       -0.83477500      -0.02538500       1.04581500
H        0.95747500       1.60535200       1.08529400
H        2.52363200       1.24974200       0.18655700
H        1.10725300      -0.60009000       2.29615300
H        2.67670200      -1.00520600       1.42413200
