15
Properties=species:S:1:pos:R:3 pbc="F F F"
C       -1.53453000       0.25750400       1.47362400
C       -0.02894400       0.15863100       1.27488700
C        0.41700300       0.49160500      -0.17971000
C       -0.15898000      -0.46472500      -1.14682800
C       -0.65586200      -1.24841800      -1.92000300
N        1.88574000       0.52391100      -0.31674900
H       -1.80594300       0.02458800       2.50124700
H       -2.05877600      -0.43629300       0.82069300
H       -1.89270500       1.26096200       1.25071800
H        0.31455000      -0.84612200       1.53926400
H        0.47938400       0.84955800       1.95637300
H        0.03243000       1.49931400      -0.43455100
H       -1.07155200      -1.93230100      -2.61853400
H        2.27771600      -0.40506900      -0.18365800
H        2.29260100       1.15039900       0.37386700
