17
Properties=species:S:1:pos:R:3 pbc="F F F"
C       -0.98910500       2.04564600      -0.80734900
C       -1.29926300       0.55542900      -0.86473800
C       -0.80435700      -0.20852600       0.36958500
N        0.66405200      -0.15091200       0.48502000
C        1.29774300      -1.23317300       1.23612700
C        1.41538400      -1.16937600      -0.24732600
H       -1.33108800       2.55057300      -1.70904100
H        0.08091100       2.21297300      -0.71024800
H       -1.47834800       2.51291600       0.04548200
H       -0.84584200       0.12239700      -1.76319900
H       -2.38084900       0.40938900      -0.96358500
H       -1.16492900      -1.25660600       0.32206900
H       -1.24015300       0.23251500       1.27949800
H        0.64953100      -1.99976300       1.66891100
H        2.14406900      -0.94321600       1.86160000
H        0.84787600      -1.89171300      -0.83993100
H        2.34805100      -0.83306900      -0.70448900
