12
Properties=species:S:1:pos:R:3 pbc="F F F"
O       -1.97026400      -0.83131000       0.59233700
C       -0.57567000      -0.69352800       0.66533400
C       -0.09588100       0.33030700      -0.37862600
O       -0.86807100       0.90006500      -1.12788300
C        1.37935600       0.62150200      -0.45776900
C        2.32340800       0.06550300       0.30773500
H       -2.28068600      -1.47328500       1.24244200
H       -0.06811800      -1.66816300       0.48974800
H       -0.25941200      -0.36305400       1.67973700
H        1.66854600       1.35140200      -1.21318300
H        2.08979400      -0.66630800       1.07481500
H        3.36927800       0.32667000       0.19076500
