15
Properties=species:S:1:pos:R:3 pbc="F F F"
C       -2.19717500      -2.44136500       1.28470200
C       -0.67306700      -2.34715700       1.23518900
C       -0.19280000      -1.12206000       0.59078800
C        0.21553000      -0.10642700       0.05602700
C        0.68267300       1.04943000      -0.55216800
C        1.09554600       2.06350600      -1.08613700
C        1.58885800       3.27432300      -1.72315300
H       -2.50411900      -3.36529100       1.77078700
H       -2.62150500      -2.42810200       0.28358400
H       -2.62154800      -1.60883300       1.84082500
H       -0.26692400      -3.21710300       0.69996400
H       -0.26694300      -2.39908000       2.25527400
H        2.53284100       3.08638300      -2.23937900
H        1.75886500       4.06164900      -0.98549300
H        0.87193400       3.64887900      -2.45705000
