19
Properties=species:S:1:pos:R:3 pbc="F F F"
C       -2.52099000      -1.05534600       1.93222100
C       -1.63438000      -1.49782400       1.04042700
C       -0.97759400      -0.63985000      -0.00601000
C        0.55517200      -0.74426300       0.03247100
C        1.25281600       0.04206800      -1.09146400
C        1.11516800       1.53459200      -0.96157400
C        2.14310100       2.38263700      -0.92128900
H       -2.97008700      -1.72270500       2.65755100
H       -2.82252400      -0.01474700       1.96148900
H       -1.35197900      -2.55152500       1.04365800
H       -1.29055900       0.40128700       0.11602700
H       -1.32810700      -0.95731700      -0.99808000
H        0.84232400      -1.79879500      -0.04867400
H        0.92159000      -0.39957000       1.00391000
H        0.83170100      -0.27204100      -2.05658200
H        2.31380500      -0.22659400      -1.11220200
H        0.09883100       1.92593000      -0.90811900
H        3.16786700       2.03270300      -0.97023100
H        1.98738100       3.45129100      -0.83744000
