17
Properties=species:S:1:pos:R:3 pbc="F F F"
C       -1.53354500       0.05032200       1.08347800
C       -0.02213600      -0.03442400       1.08584400
C        0.84056300       0.72510200       0.12061800
C        0.74985600      -0.78724600       0.01781400
C        0.05769400      -1.46766100      -1.14352600
N        0.25408400       1.60608800      -0.87638700
H       -1.87395200       0.92793600       1.63292000
H       -1.96932900      -0.82610900       1.56255800
H       -1.94012400       0.11002300       0.07664600
H        0.39351400      -0.13048900       2.09210900
H        1.78097200       1.11663900       0.52811900
H        1.61931900      -1.33581000       0.38727500
H       -0.73933700      -0.85116500      -1.55319400
H       -0.37830100      -2.42022400      -0.84188000
H        0.76504300      -1.67091800      -1.94781400
H       -0.72992900       1.39953500      -1.01995900
H        0.73894500       1.52141200      -1.76743800
