16
Properties=species:S:1:pos:R:3 pbc="F F F"
C        0.82384900      -0.70764500      -1.23477600
C        0.38365900      -0.57824400       0.22912800
C       -1.11822000      -0.49192700       0.43765800
C       -2.05515000      -0.85086900      -0.44019300
O        1.04315300       0.52835100       0.88958400
C        0.71877300       1.81520500       0.39309600
H        1.90836500      -0.67053800      -1.30658500
H        0.41571200       0.08951800      -1.85247400
H        0.49213300      -1.65699800      -1.65053200
H        0.74530100      -1.47411500       0.77916000
H       -1.42495300      -0.13752400       1.42238000
H       -1.80631300      -1.21207900      -1.43156500
H       -3.10780500      -0.79184700      -0.18973600
H        1.17779000       2.55407500       1.05794400
H       -0.37183900       1.98103800       0.37351500
H        1.10891700       1.97253900      -0.62825100
