21
Properties=species:S:1:pos:R:3 pbc="F F F"
C       -3.21858900       1.28865100      -0.10501900
C       -1.73047400       1.41721400      -0.40520500
C       -0.95812400       0.12124400      -0.13203300
C        0.53925900       0.25340000      -0.43908600
C        1.30595900      -1.03644200      -0.17855300
C        2.78328100      -1.00040300       0.06833300
C        1.84618700      -1.33777400       1.18613400
H       -3.73789100       2.22313900      -0.30729200
H       -3.38625900       1.03136200       0.93899400
H       -3.67501400       0.51189900      -0.71551000
H       -1.30580800       2.22835100       0.19632400
H       -1.59326600       1.70966200      -1.45202100
H       -1.38398200      -0.69079000      -0.73169100
H       -1.09291800      -0.17067800       0.91477200
H        0.96795400       1.06146700       0.16290200
H        0.66758200       0.55086900      -1.48761200
H        0.93993300      -1.89684000      -0.74219500
H        3.27321500      -0.03250000       0.09741500
H        3.39309600      -1.79904600      -0.34194900
H        1.70723800      -0.59652600       1.96660500
H        1.82112700      -2.36571300       1.53382900
