12
Properties=species:S:1:pos:R:3 pbc="F F F"
C        1.43987800      -0.20143300       0.09594400
C        0.42951900      -1.32274200      -0.02009000
C       -0.88750600      -1.06850800      -0.09387100
N       -1.35051800       0.25238700      -0.06564600
C       -0.42828100       1.29308000       0.00821200
N        0.85489700       1.15102800       0.08180400
H        2.18717500      -0.27093400      -0.72228100
H        2.03896400      -0.31675200       1.02432800
H        0.78497000      -2.34901900      -0.04415900
H       -1.65232200      -1.83993600      -0.17720700
H       -2.34125700       0.44744500      -0.13563800
H       -0.86983800       2.30291900       0.00067700
