18
Properties=species:S:1:pos:R:3 pbc="F F F"
N       -2.77268800      -0.91523300      -1.13662700
C       -1.30772200      -0.91873300      -1.13059200
C       -0.76452700      -0.01055800      -0.02366800
C        0.76464100       0.01082700       0.02329900
C        1.30778900       0.91974200       1.12964400
N        2.77273300       0.91383900       1.13778200
H       -3.13082100      -1.50439500      -1.88349500
H       -3.12837600       0.02817900      -1.26818500
H       -0.88909500      -0.59862100      -2.10898900
H       -0.95998600      -1.95013900      -0.97219600
H       -1.15973300      -0.34077200       0.94266700
H       -1.14245100       1.00767200      -0.17370000
H        1.15994700       0.34031300      -0.94324600
H        1.14246600      -1.00732400       0.17408000
H        0.88726400       0.60179700       2.10793500
H        0.96198600       1.95147700       0.96919900
H        3.12664400      -0.02991500       1.27169200
H        3.13075600       1.50382700       1.88405000
