14
Properties=species:S:1:pos:R:3 pbc="F F F"
C       -2.75971700      -1.25152400      -0.52573000
C       -1.42988400      -1.22474800      -0.33232300
C       -0.67145000      -0.01007400      -0.09311700
C        0.67178600       0.00759900       0.09794400
C        1.42963900       1.22381900       0.33148600
C        2.75966900       1.25405000       0.52318500
H       -3.28372900      -2.18223900      -0.70266600
H       -3.34863100      -0.34148600      -0.51056300
H       -0.86690500      -2.15822400      -0.35487600
H       -1.22617300       0.92832400      -0.07093200
H        1.22720300      -0.93046000       0.07621700
H        0.86591000       2.15704300       0.34766400
H        3.35020300       0.34503800       0.51369000
H        3.28187000       2.18727300       0.69279400
