14
Properties=species:S:1:pos:R:3 pbc="F F F"
C       -1.33628900       1.87955500       0.17955000
C       -0.07377300       1.44492000      -0.55202400
C        0.31207600      -0.02794900      -0.36749900
O        0.97532300      -0.61193300      -1.21017700
C       -0.09165100      -0.78771300       0.89780000
O        0.46342600      -2.07700400       0.83818900
H       -1.54378900       2.92939400      -0.01357100
H       -1.23710300       1.75509700       1.25635500
H       -2.20042000       1.30478400      -0.14738500
H        0.77463400       2.04768500      -0.20490800
H       -0.16518700       1.64780300      -1.62230900
H       -1.19673300      -0.83867200       0.97627100
H        0.26062500      -0.24765700       1.79964500
H        0.93580200      -2.13981400      -0.01515900
