16
Properties=species:S:1:pos:R:3 pbc="F F F"
C       -2.61042400      -0.47529600      -1.35674800
C       -1.12122600      -0.56969300      -1.24863400
C       -0.38100200       0.14591600      -0.39299800
C        1.11773700       0.04681200      -0.29119100
C        1.60396900      -0.17425300       1.15348000
O        1.29314200       0.92743100       1.98857800
H       -2.90960600      -0.18857700      -2.36643900
H       -3.01595200       0.25485700      -0.66025500
H       -3.07755000      -1.44017400      -1.15145400
H       -0.63209400      -1.27387700      -1.92254000
H       -0.86396800       0.84562800       0.28788300
H        1.57303100       0.97380500      -0.67165800
H        1.48672500      -0.76249500      -0.93015000
H        2.70214000      -0.35032100       1.14834100
H        1.13368600      -1.06457700       1.59456700
H        1.60413700       1.74536900       1.57962700
