14
Properties=species:S:1:pos:R:3 pbc="F F F"
O       -1.03167900       0.74375700       1.53076500
C        0.36171700       0.62326300       1.28224400
C        0.66860800      -0.75181800       0.69090000
C        0.29100100      -0.90369200      -0.77868800
C       -0.77680200      -0.12555200      -1.43913900
O        0.59829600       0.18634700      -1.65010800
H       -1.21928700       1.60637700       1.92292400
H        0.92138300       0.75735000       2.23256000
H        0.69820700       1.42427600       0.59520700
H        0.15251700      -1.52127000       1.27633500
H        1.74154000      -0.95413200       0.79887900
H        0.54207800      -1.88979300      -1.20852700
H       -1.34350100       0.62616300      -0.88028200
H       -1.29302100      -0.54301500      -2.31424500
