17
Properties=species:S:1:pos:R:3 pbc="F F F"
C       -1.76521000      -0.00125100       0.02052400
C       -0.25640300      -0.00485500      -0.31039700
N       -0.02268100      -0.02586600      -1.76844700
C        0.54916600       1.09805500       0.42671700
C        1.22788100       0.01999200       1.28227300
C        0.55160200      -1.08404800       0.45846400
H       -2.25402200       0.87278300      -0.40736500
H       -1.93173700       0.01380100       1.09533200
H       -2.25312700      -0.88743600      -0.38263400
H       -0.44400100       0.79099000      -2.20559600
H       -0.43875100      -0.85800300      -2.18109000
H       -0.04543500       1.82968600       0.97981100
H        1.23962800       1.63721300      -0.22397700
H        0.92193400       0.03488600       2.33138000
H        2.32000600       0.02079200       1.25159200
H       -0.04120300      -1.80076200       1.03264900
H        1.24326100      -1.64024600      -0.17645300
