19
Properties=species:S:1:pos:R:3 pbc="F F F"
C       -3.09067300      -0.19930000       1.88558100
C       -2.18365500      -0.73698900       1.06973000
C       -1.39516700       0.03288800       0.04627600
C        0.12091400      -0.15501900       0.21131400
C        0.92015800       0.57845900      -0.87696000
C        2.40594300       0.45170300      -0.68151700
C        3.25232700      -0.00998400      -1.60232900
H       -3.63650400      -0.80574400       2.59806000
H       -3.31350100       0.86122900       1.86244300
H       -1.98259800      -1.80780700       1.12260200
H       -1.64813600       1.09670400       0.09846700
H       -1.68630100      -0.30742800      -0.95699200
H        0.36089000      -1.22293700       0.18545200
H        0.43008800       0.20707600       1.19722300
H        0.64818600       1.64278000      -0.85829200
H        0.63718400       0.20326600      -1.86569300
H        2.79030300       0.77138400       0.28799100
H        2.90489800      -0.33905600      -2.57491200
H        4.31641600      -0.07001200      -1.40892400
