21
Properties=species:S:1:pos:R:3 pbc="F F F"
C        0.28269600      -1.58317700      -1.99141300
C       -0.55505700      -1.47637600      -0.72289200
C        0.05562900      -0.53016300       0.31900600
C       -0.77252300      -0.26931800       1.59420900
C       -0.59190900       1.24109300       1.40404200
C        0.02941600       0.99265100       0.01328500
C        1.35893800       1.67389000      -0.28849400
H       -0.18054900      -2.25946800      -2.70726600
H        1.28016200      -1.95927200      -1.77165900
H        0.39200700      -0.61219500      -2.47031400
H       -0.67091600      -2.47189000      -0.27867900
H       -1.56439500      -1.13587000      -0.97994300
H        1.07212200      -0.86755600       0.56699200
H       -0.36551800      -0.68433700       2.52021500
H       -1.81319300      -0.59252300       1.50853100
H        0.10691100       1.68491800       2.11718500
H       -1.50997200       1.83464900       1.41564500
H       -0.68848200       1.22335400      -0.78690100
H        2.09309200       1.46665400       0.48799300
H        1.23738000       2.75418000      -0.35212300
H        1.76821500       1.32775400      -1.23613200
