14
Properties=species:S:1:pos:R:3 pbc="F F F"
C       -1.96727000       0.75497300       1.12347900
C       -0.50222300       0.46207400       0.87349600
C        0.27469300       1.18666200      -0.18986300
N       -0.14162300      -0.19433000      -0.38044400
C        0.78179400      -1.25609200      -0.45266500
N        1.83583600      -1.27160500      -1.19454800
H       -2.08303100       1.55607000       1.85234100
H       -2.47981800      -0.12378200       1.51343000
H       -2.46605200       1.05553200       0.20544500
H        0.06328100       0.14318900       1.75927000
H        1.34189700       1.36509900      -0.03777700
H       -0.23045000       1.92305600      -0.81838000
H        0.48985200      -2.16067200       0.10882900
H        1.98286100      -0.38264100      -1.68489900
