17
Properties=species:S:1:pos:R:3 pbc="F F F"
C        0.23748700      -2.09043300       1.13557500
C       -0.19722500      -0.64198100       0.95413500
C        0.26304400      -0.04606700      -0.39318900
C       -0.24977900       1.39654700      -0.60190900
N       -1.71413900       1.43251800      -0.65921400
O        1.69400600      -0.06164100      -0.48390000
H       -0.06011900      -2.46735900       2.11213200
H        1.31785600      -2.18266600       1.05014500
H       -0.21012500      -2.73002500       0.37743300
H        0.20442700      -0.03268700       1.77303000
H       -1.28664500      -0.56794400       1.02085000
H       -0.10570200      -0.68169900      -1.22066800
H        0.21163100       1.81163800      -1.51995900
H        0.08389600       2.03657900       0.22825800
H       -2.05760200       0.86438900      -1.43001900
H       -2.04407200       2.38508400      -0.79195600
H        2.07222300       0.32179600       0.31877800
