17
Properties=species:S:1:pos:R:3 pbc="F F F"
C       -1.92288700       0.90832900       1.38183000
C       -0.41652800       0.80965300       1.49860500
C        0.47987800       1.47258900       0.49217900
C        0.41345400      -0.02536300       0.56070300
C       -0.22372100      -0.82997600      -0.56988900
C        0.75173500      -1.25212600      -1.57762600
C        1.55140700      -1.61054200      -2.40931600
H       -2.29074800       1.79357200       1.89940000
H       -2.41041500       0.04147600       1.82799700
H       -2.24140300       0.97616100       0.34423800
H       -0.05824200       0.83326000       2.52969200
H        1.38054400       1.96304200       0.84859200
H        0.00966000       1.95765600      -0.35715100
H        1.27743000      -0.51551500       1.01202900
H       -1.00853800      -0.24106500      -1.06062300
H       -0.71526300      -1.72559900      -0.16217700
H        2.25694300      -1.91837200      -3.14091100
