17
Properties=species:S:1:pos:R:3 pbc="F F F"
C       -0.47227000      -3.01617800      -1.15259500
C        0.09527500      -1.75814200      -1.73119900
C       -0.02714800      -0.51824800      -1.23863000
C       -0.78704300      -0.12495400       0.00644200
C       -0.15318100       0.97998300       0.73667100
C        0.36216000       1.88969400       1.34484000
C        0.98551900       2.98487100       2.07705600
H       -1.27636100      -3.40145100      -1.78314100
H       -0.87452700      -2.86874100      -0.15318100
H        0.29083400      -3.79337800      -1.10373600
H        0.65856700      -1.88641700      -2.65576600
H        0.44133300       0.30042100      -1.78282200
H       -0.90577600      -0.98419600       0.67971100
H       -1.80927300       0.18140200      -0.27322700
H        0.52488700       3.93932000       1.81546500
H        2.05056700       3.04900200       1.84714600
H        0.87988000       2.84187700       3.15403700
