16
Properties=species:S:1:pos:R:3 pbc="F F F"
N       -1.68119100      -0.26840100       0.58915200
C       -0.22125200      -0.31632900       0.40121000
C        0.21333700      -0.63622600      -1.02284400
C       -0.60052700      -0.92957700      -2.03673500
C        0.40481100       1.01236400       0.88626300
N        1.86659600       0.93058500       0.91423500
H       -2.09962800      -1.15602200       0.32071000
H       -2.08786800       0.46069700       0.00688600
H        0.17002100      -1.12448900       1.05264900
H        1.28971900      -0.61570900      -1.19271400
H       -1.67794900      -0.95473100      -1.91462300
H       -0.21228700      -1.15087200      -3.02335200
H       -0.01623600       1.25970200       1.88195600
H        0.11226500       1.83045800       0.21377000
H        2.17576500       0.21428200       1.56694400
H        2.27014100       1.81999300       1.19669800
