18
Properties=species:S:1:pos:R:3 pbc="F F F"
C       -1.33775100      -0.75648500       1.96069500
C       -1.65937700      -0.52505200       0.48943100
C       -1.06065800       0.76964000      -0.08075200
C        0.47249800       0.80459800      -0.13908600
C        1.07517100      -0.21691000      -1.11243700
O        2.48573500      -0.07899900      -1.19241400
H       -1.81865600      -1.66386000       2.31968200
H       -1.68791000       0.07276700       2.57206900
H       -0.26710600      -0.86064200       2.12177500
H       -2.74690900      -0.48573800       0.36429700
H       -1.31675300      -1.38298000      -0.09833200
H       -1.40975900       1.61672900       0.51949800
H       -1.45827700       0.92516900      -1.09048800
H        0.89034500       0.64572400       0.85949900
H        0.78750200       1.81092800      -0.44330200
H        0.62325500      -0.09477200      -2.12084000
H        0.86671200      -1.24602900      -0.78635400
H        2.71237500       0.83994900      -1.38530100
