15
Properties=species:S:1:pos:R:3 pbc="F F F"
C       -0.69862400       1.21630200      -1.60434700
N       -1.24837700       0.81036500      -0.30916000
C       -0.87932800      -0.55924000       0.08029700
C        0.59768900      -0.67973200       0.50124200
O        1.23905600      -1.68116500       0.24663100
C        1.19846600       0.47591200       1.29729200
H       -1.03695200       2.22686200      -1.84081600
H       -1.00405100       0.54830500      -2.42733900
H        0.39358500       1.21836800      -1.56806500
H       -2.26770200       0.89252000      -0.33545700
H       -1.09181800      -1.29794700      -0.71580400
H       -1.49486300      -0.84201400       0.94696500
H        0.59512300       0.68190000       2.18039500
H        1.21002800       1.38431000       0.69746000
H        2.21362000       0.24500900       1.60683500
