21
Properties=species:S:1:pos:R:3 pbc="F F F"
C        1.17149800       0.27344400      -1.49184100
C        0.36153800      -0.61528500      -0.53989500
C       -1.15451500      -0.32485800      -0.61273000
C       -1.77821000      -0.64601400      -1.96539500
C        0.87362900      -0.50372100       0.92063900
C        0.67644100       0.84963100       1.54508800
C        0.04582400       1.05915700       2.70145900
H        2.23764100       0.08079300      -1.38645100
H        0.99986700       1.32927600      -1.29267900
H        0.89957400       0.08214900      -2.52751400
H        0.51961600      -1.66216900      -0.84882600
H       -1.65960700      -0.91277600       0.16117000
H       -1.33503900       0.72598100      -0.36594400
H       -1.59939100      -1.68290400      -2.24421600
H       -1.37142800      -0.01479700      -2.75243800
H       -2.85445800      -0.48831100      -1.93788700
H        1.94625300      -0.74144200       0.92701600
H        0.38070200      -1.26502600       1.53400000
H        1.10130200       1.69868800       1.00865500
H       -0.38878500       0.24151700       3.26507300
H       -0.05347600       2.05488900       3.11609900
