16
Properties=species:S:1:pos:R:3 pbc="F F F"
C       -2.47396300      -0.54291100      -1.53564800
C       -1.61483700      -0.93453000      -0.59439400
C       -0.77979800      -0.00156500       0.23762300
C        0.72254600      -0.33879400       0.16715900
C        1.54565100       0.52649600       1.08047600
C        2.59382400       1.25255500       0.69095400
H       -3.05796200      -1.26144600      -2.09740600
H       -2.61770300       0.50553400      -1.76966500
H       -1.49368100      -1.99914900      -0.38943000
H       -1.10466600      -0.06661500       1.28516000
H       -0.94500000       1.03292300      -0.07661500
H        1.07866500      -0.24424300      -0.86270200
H        0.85964900      -1.39138800       0.45107900
H        1.24558300       0.53808800       2.12929100
H        2.91661600       1.26896400      -0.34365400
H        3.15796000       1.84983000       1.39692200
