10
Properties=species:S:1:pos:R:3 pbc="F F F"
O       -1.80949700      -0.00037400       0.48663000
C       -0.64377300      -0.00013100       0.17079400
C        0.40303100       1.08156900      -0.10327900
N        1.35989600       0.00089800      -0.48178800
C        0.40043600      -1.08140700      -0.11466900
H        0.70719800       1.66257300       0.77966900
H        0.18888200       1.78648200      -0.91982800
H        2.21465300      -0.00306400       0.07906300
H        0.70320300      -1.67236500       0.76214100
H        0.18459600      -1.77710900      -0.93864900
