14
Properties=species:S:1:pos:R:3 pbc="F F F"
C       -1.83356600       0.01057100       0.79861000
C       -0.32080900      -0.07824700       0.79934800
C        0.52908000       0.73957900      -0.16042600
C        0.41465700      -0.74239700      -0.35358000
O        1.51832300      -1.58145500      -0.07317300
O       -0.08134000       1.63002200      -1.07080700
H       -2.18118100       0.88651400       1.34643600
H       -2.27371400      -0.86877500       1.26707500
H       -2.22840000       0.07276100      -0.21511700
H        0.11730300      -0.22882900       1.78786100
H        1.46780700       1.15121400       0.22382900
H       -0.17828100      -1.13209600      -1.18423700
H        2.04140500      -1.21255400       0.64999700
H       -0.99697800       1.36619300      -1.22771000
