14
Properties=species:S:1:pos:R:3 pbc="F F F"
O        0.65698600      -1.10048800       0.68440900
C        0.26457300       0.27683500       0.66098800
C       -1.23251200       0.38381300       0.49006400
C       -2.05675500      -0.65762900       0.39044700
C        1.04256600       0.98031400      -0.47763500
O        0.93370800       0.21373900      -1.65889600
H        1.60122600      -1.16711600       0.88285300
H        0.54815800       0.75078300       1.63316400
H       -1.62695900       1.39983900       0.44842500
H       -1.67678800      -1.67088300       0.42941900
H       -3.12441500      -0.51740700       0.27100500
H        2.11196400       1.08855300      -0.18730800
H        0.65595700       1.99719000      -0.66230400
H        0.67806900      -0.68696300      -1.40254400
