18
Properties=species:S:1:pos:R:3 pbc="F F F"
C        0.34946800      -0.07197400      -2.00007100
C       -0.15903500      -0.94939200      -0.86296800
C        0.23633700      -0.46145400       0.56199000
C       -0.33655400       0.93529000       0.91841600
N       -1.80089700       1.01512700       0.88152100
N        1.69872400      -0.44156000       0.76440500
H        0.07459800      -0.49546500      -2.96398400
H        1.43396700       0.01697900      -1.97349600
H       -0.06865100       0.93087600      -1.94529900
H        0.22534900      -1.96654500      -0.99736900
H       -1.25007300      -1.02637700      -0.92447200
H       -0.18470200      -1.19434900       1.27707400
H        0.00343600       1.20529300       1.92692000
H        0.07184800       1.69365200       0.23680400
H       -2.21449100       0.32672900       1.50564000
H       -2.14757400       0.84494600      -0.05906500
H        2.12643800       0.27405600       0.18120100
H        2.10376600      -1.33957800       0.51035600
