18
Properties=species:S:1:pos:R:3 pbc="F F F"
C       -0.21815300       1.76164700       1.67096900
C       -0.49490100       0.41942100       1.00527600
C       -0.00363900       0.35749400      -0.46026100
O       -0.62449900      -0.73945300      -1.17078400
C       -0.37542900      -2.04222800      -0.68039000
C        1.52709600       0.30565200      -0.58119200
H       -0.60035600       1.77195800       2.68963500
H       -0.69532800       2.57484200       1.12702600
H        0.84872600       1.97166000       1.71449900
H       -1.57169400       0.22577300       1.01952200
H       -0.02734700      -0.37799000       1.59230900
H       -0.36445500       1.26241400      -0.98872800
H       -0.87463100      -2.74916200      -1.35145400
H       -0.77793300      -2.18734100       0.33846700
H        0.70246700      -2.28084400      -0.65955600
H        1.95224200      -0.51304300      -0.00332100
H        1.97078000       1.23095800      -0.21917700
H        1.82368300       0.17447800      -1.61935900
