21
Properties=species:S:1:pos:R:3 pbc="F F F"
C       -1.87798600      -0.73569200      -0.97611100
C       -2.00968300      -0.90432300       0.53189800
C       -1.36420500       0.22322000       1.35091000
C        0.17402900       0.20623300       1.37772300
C        0.83028500       0.66681900       0.10291500
C        1.90660400       0.08366500      -0.44063000
C        2.59287600       0.56990700      -1.67879400
H       -2.37797400      -1.54955200      -1.49782000
H       -0.83504000      -0.72875400      -1.28215500
H       -2.32870700       0.19910700      -1.30358900
H       -1.57742600      -1.86493900       0.83217400
H       -3.07344600      -0.95481400       0.79090700
H       -1.72251700       0.14385200       2.38368300
H       -1.71284500       1.19278000       0.97924000
H        0.53341300      -0.79343400       1.64431400
H        0.49866500       0.87195700       2.19159200
H        0.41093900       1.55751100      -0.36603400
H        2.33073400      -0.80447000       0.02835500
H        2.09841700       1.44601600      -2.09215300
H        2.61250600      -0.20611500      -2.44603500
H        3.63176600       0.83187500      -1.46995000
