21
Properties=species:S:1:pos:R:3 pbc="F F F"
C       -0.53350000      -2.62556800      -0.37029300
C       -1.00193300      -1.17967400      -0.50144300
C       -0.28770000      -0.24571100       0.46856500
C       -0.29786000       1.25237900       0.29024000
C        0.97423200       0.47388700       0.06757700
C        2.13288200       0.59775700       1.03455900
C       -1.01174100       1.92277600      -0.86479800
H       -1.05986500      -3.26975900      -1.07188000
H       -0.71480300      -3.00535600       0.63341400
H        0.53251900      -2.71204100      -0.57017300
H       -2.08396100      -1.13575000      -0.32455900
H       -0.84454100      -0.83936900      -1.52970100
H       -0.32243500      -0.58288600       1.50696700
H       -0.34069600       1.82300300       1.22045500
H        1.27158800       0.35268500      -0.97556700
H        1.78048300       0.70321300       2.05867200
H        2.74945000       1.46629800       0.80215000
H        2.77623000      -0.28121700       0.99201200
H       -0.85821600       1.38331700      -1.79671900
H       -0.64657400       2.93977900      -1.00650700
H       -2.08545800       1.98300600      -0.68501100
