17
Properties=species:S:1:pos:R:3 pbc="F F F"
N       -1.27557300      -0.76179600      -0.49514800
C       -1.54200000       0.56696200       0.08175000
C       -0.32309400       1.51096700       0.01672400
C        0.98172800       0.80817400       0.38589400
C        1.02897200      -0.68033400       0.49520800
C       -0.23983700      -1.49695300       0.25350400
N        1.66072500       0.00384200      -0.64221900
H       -0.98234100      -0.65610400      -1.47017600
H       -1.85213800       0.43175200       1.12762200
H       -2.39323100       1.01820900      -0.44826700
H       -0.48584100       2.36004100       0.68921100
H       -0.23958300       1.93533800      -0.99166000
H        1.67159200       1.39357500       1.00624100
H        1.74507100      -1.12606500       1.19738600
H       -0.65673400      -1.80947200       1.22502000
H       -0.00593500      -2.41933300      -0.29871000
H        1.06846200      -0.07516200      -1.47357700
