17
Properties=species:S:1:pos:R:3 pbc="F F F"
C       -1.94689500       1.20335000       0.07967500
C       -2.01823900      -0.08005900       0.45624600
C       -1.12121100      -1.16247000       0.03511500
C        0.20110200      -1.12296500      -0.23451000
C        1.15676300      -0.00739500      -0.05883400
C        1.15438900       0.79684800       1.01910500
C        2.22160200       0.10945200      -1.11927500
H       -2.69208600       1.91963500       0.40417500
H       -1.14974500       1.56492200      -0.55790300
H       -2.86653600      -0.39853700       1.06525200
H       -1.61905100      -2.12637400      -0.09120400
H        0.65125500      -2.04055700      -0.62058300
H        0.40727700       0.69324000       1.79507500
H        1.90243800       1.57125700       1.13713400
H        2.79009200      -0.81792900      -1.19933100
H        2.91384000       0.91834700      -0.90010300
H        1.77744400       0.29542700      -2.09763900
