19
Properties=species:S:1:pos:R:3 pbc="F F F"
C       -0.89007800       1.66255600      -1.19155100
C       -1.25713500       1.12318100      -0.02576000
C       -0.44633400       0.33795500       0.94622200
C        0.99326500      -0.10802800       0.81279300
C       -0.10791600      -1.13087300       0.73891600
C       -0.46072300      -1.84331700      -0.54733200
C        1.90634300       0.20445100      -0.35356300
H       -1.60845400       2.21266400      -1.78712800
H        0.11432600       1.58824000      -1.58368700
H       -2.29137200       1.27025200       0.29566000
H       -0.73769300       0.56094900       1.97714200
H        1.52627700      -0.09752800       1.76767500
H       -0.22739700      -1.75516200       1.62842000
H       -0.45927000      -1.16176700      -1.39407500
H       -1.45304000      -2.28852100      -0.47944000
H        0.24647000      -2.64629400      -0.75697400
H        1.45222300      -0.03714600      -1.31028400
H        2.82394300      -0.37804300      -0.26971500
H        2.18945900       1.25680600      -0.36593700
