11
Properties=species:S:1:pos:R:3 pbc="F F F"
C       -2.45223600      -0.44606100      -0.16250600
O       -1.07518700      -0.27534600       0.12210400
C       -0.36912500       0.52183600      -0.69470500
C        0.97123300       0.69021600      -0.56797800
C        1.76086300       0.02560600       0.42299900
N        2.43317600      -0.49486400       1.20717600
H       -2.94089800      -0.82065200       0.74055500
H       -2.59426000      -1.17841800      -0.97252900
H       -2.91791800       0.50364900      -0.46333400
H       -0.93555100       1.05265100      -1.47408800
H        1.49348000       1.35999900      -1.24452700
