17
Properties=species:S:1:pos:R:3 pbc="F F F"
C       -1.53814200       0.18720400      -0.13743500
C       -0.00861900       0.20331500       0.00851000
N        0.42009400      -0.59226000       1.18474600
C        0.09561000       0.01240800       2.47536200
C        0.68667000      -0.37272100      -1.24504900
O        0.50199700       0.45663600      -2.38035000
H       -2.02039100       0.63040300       0.73058100
H       -1.91040100      -0.82964800      -0.24530100
H       -1.84940300       0.75649200      -1.01245200
H        0.31330800       1.26444400       0.12381700
H        1.43032200      -0.74758000       1.13302400
H       -0.98602800       0.03114600       2.63277700
H        0.46568900       1.04899400       2.57218800
H        0.54265800      -0.58368200       3.27348900
H        0.31487300      -1.39738900      -1.45518100
H        1.77150400      -0.44996500      -1.07226300
H       -0.44187800       0.58827800      -2.53942300
