15
Properties=species:S:1:pos:R:3 pbc="F F F"
C       -1.93888900      -0.15698700       0.05885000
C       -0.41722500      -0.19075000       0.18430500
N        0.10818700      -0.15040900       1.55321800
C        0.37835900      -1.04277700      -0.79213700
C        0.44682200       0.46258400      -0.85962100
O        1.62316300       1.09975000      -0.42870100
H       -2.39618700      -1.01377600       0.55411900
H       -2.24421300      -0.17172900      -0.98503800
H       -2.34893100       0.74361900       0.51635900
H       -0.13425200      -1.00125400       2.05827400
H       -0.28418400       0.64029900       2.06197500
H       -0.17089000      -1.57307900      -1.56408300
H        1.23953600      -1.57067100      -0.39822600
H       -0.01347700       0.97126900      -1.71218300
H        1.79557700       0.79777100       0.47749600
