14
Properties=species:S:1:pos:R:3 pbc="F F F"
O       -1.92947400      -0.06287300       0.91613700
C       -0.83609700      -0.02729400       0.39671000
C       -0.02077100       1.24667300       0.13067800
C        1.15231600       0.79078800      -0.73934600
C        1.34140500      -0.70953100      -0.44359100
C       -0.04822600      -1.24887600      -0.09873200
H        0.32533800       1.65082800       1.08774700
H       -0.62840300       2.02413500      -0.33780300
H        2.06483800       1.35820300      -0.54383400
H        0.91008800       0.93282000      -1.79653900
H        2.01343400      -0.83751300       0.40996800
H        1.79656700      -1.23277000      -1.28738700
H       -0.02875800      -2.04644100       0.64736500
H       -0.54907700      -1.65684200      -0.98292300
