14
Properties=species:S:1:pos:R:3 pbc="F F F"
C       -1.44472300      -0.99692200      -1.77424000
C        0.07187300      -0.93211600      -1.66935000
C        0.61266100      -0.24432500      -0.44811900
C       -0.12088600       0.29690900       0.54174800
C        0.45223500       0.94166800       1.68421900
C        0.88733500       1.49748800       2.67062900
H       -1.73859400      -1.50887600      -2.68795800
H       -1.88250200      -0.00105400      -1.79284500
H       -1.87604800      -1.53804800      -0.93469500
H        0.47872800      -0.43175800      -2.55903600
H        0.48393400      -1.95013500      -1.70666500
H        1.69928600      -0.19431100      -0.38466600
H       -1.21066100       0.26604500       0.51278000
H        1.29489000       1.98192000       3.52376000
