10
Properties=species:S:1:pos:R:3 pbc="F F F"
C       -1.57433900       0.20177900      -0.74300700
C       -0.05156700       0.17911800      -0.72046200
C        0.51381100      -0.40736000       0.57186700
O        1.49340400       0.01238500       1.13073800
H       -1.94262400       0.55676400      -1.70276700
H       -1.96702000       0.85897900       0.02991200
H       -1.98146100      -0.79362800      -0.57324900
H        0.35420900       1.18153400      -0.87678800
H        0.31581000      -0.43891800      -1.54935400
H       -0.05358000      -1.30503500       0.97595300
