18
Properties=species:S:1:pos:R:3 pbc="F F F"
C       -2.57882700      -1.08160300      -0.32260400
C       -1.05553700      -1.07997200      -0.30014700
C       -0.46490000       0.27828800      -0.69809500
C        1.06960000       0.28691400      -0.74589200
C        1.73231900       0.22539800       0.63765300
O        1.38991700       1.34664400       1.43648000
H       -2.96998100      -2.05778500      -0.04375200
H       -2.95581200      -0.84083500      -1.31481300
H       -2.98133300      -0.34799600       0.37287300
H       -0.68018600      -1.85403700      -0.97905400
H       -0.70710000      -1.35341300       0.70082400
H       -0.80697200       1.04506100       0.00378900
H       -0.85288600       0.56277100      -1.68253600
H        1.40428200       1.19881900      -1.25622000
H        1.42711900      -0.55230000      -1.35296200
H        2.83638900       0.16986100       0.51584300
H        1.42276300      -0.67586500       1.18686200
H        1.52845500       2.15841700       0.93181300
