15
Properties=species:S:1:pos:R:3 pbc="F F F"
C       -3.75042400       0.49506400      -0.29612500
C       -2.30707400       0.41428900      -0.13104800
C       -1.10150000       0.31187600      -0.00590700
C        0.31289500       0.26696200       0.17574300
C        1.09413600      -0.76782000      -0.22044700
C        2.54063100      -0.84422900      -0.04986700
C        3.32745600       0.08270900       0.52186500
H       -4.06825600      -0.01765700      -1.20622300
H       -4.07941500       1.53424100      -0.35792200
H       -4.26268900       0.02968800       0.54889500
H        0.75933600       1.13473500       0.66640200
H        0.62416500      -1.62022800      -0.70739100
H        3.00640900      -1.75261400      -0.43150200
H        2.92715500       1.00719400       0.92184400
H        4.39657400      -0.06846900       0.60061300
