19
Properties=species:S:1:pos:R:3 pbc="F F F"
C       -0.92686000       1.69899100       2.56564300
C       -1.13011000       1.11020800       1.20495800
C       -0.15315300       0.55686400       0.47080300
C       -0.36770900      -0.02121600      -0.88087700
C        0.72276400       0.04816200      -1.92213100
C        0.34805600      -1.27650700      -1.33585900
C        1.30605800      -2.02783500      -0.43738000
H       -1.55015500       1.19592600       3.30744000
H       -1.20791400       2.75377300       2.58240900
H        0.11021500       1.61896000       2.88356600
H       -2.14488500       1.14463000       0.80817900
H        0.86134200       0.52527000       0.86725600
H       -1.38510200       0.09256900      -1.26049600
H        1.67135800       0.48245900      -1.62326700
H        0.43189700       0.26049100      -2.94663600
H       -0.24448800      -1.92496400      -1.98485200
H        1.93031900      -1.34794200       0.13723600
H        1.96442500      -2.66721200      -1.02552600
H        0.76871800      -2.66596000       0.26375100
