15
Properties=species:S:1:pos:R:3 pbc="F F F"
C       -1.23735300       1.18788700       0.86559100
N       -1.49464200      -0.24829500       0.80114100
C       -0.96078500      -0.92104200      -0.38864700
C        0.57335400      -1.03229800      -0.36733100
C        1.28865600       0.26773100      -0.71840100
O        2.31850200       0.63388000      -0.21160800
H       -1.73555600       1.60307000       1.74377500
H       -1.59967900       1.73382500      -0.02434300
H       -0.16533800       1.38024000       0.95944800
H       -2.50013600      -0.42028900       0.86509700
H       -1.27107400      -0.41353600      -1.32911000
H       -1.39327400      -1.93049600      -0.41965500
H        0.87877600      -1.77675300      -1.11402900
H        0.92253000      -1.39654800       0.60156600
H        0.79499500       0.87384400      -1.54514500
