17
Properties=species:S:1:pos:R:3 pbc="F F F"
C       -1.66418500       0.63704700       1.30361700
C       -0.15207200       0.55640700       1.29757200
C        0.65484800       1.30242600       0.27288200
C        0.61171100      -0.19922200       0.24513800
C       -0.08516900      -0.93604500      -0.89074800
N        0.88179400      -1.31108400      -1.92827600
H       -2.00276600       1.48592100       1.89752500
H       -2.10509000      -0.26165900       1.73559500
H       -2.06246700       0.75622100       0.29878200
H        0.28457800       0.52258400       2.29794300
H        1.57164100       1.78812400       0.59377700
H        0.11136800       1.83468000      -0.50176300
H        1.51627200      -0.69891900       0.59603500
H       -0.90529800      -0.31010400      -1.29967900
H       -0.55961600      -1.85477200      -0.50955800
H        1.37489200      -0.49013100      -2.26962600
H        0.41313300      -1.75804200      -2.71186400
