14
Properties=species:S:1:pos:R:3 pbc="F F F"
N        0.85724900      -0.34885200      -1.45814300
C        0.34104700      -0.68864700      -0.11696700
C       -1.13382400      -0.70507100      -0.12943300
C       -2.34076100      -0.73230200      -0.09996100
C        0.88687400       0.25596300       0.99279600
N        0.52580000       1.64864200       0.74301900
H        1.86318200      -0.20036900      -1.42561600
H        0.41060200       0.49540800      -1.80638600
H        0.68510100      -1.71483200       0.12935600
H       -3.40286200      -0.73984000      -0.09796300
H        1.98838500       0.11459400       1.05621600
H        0.47748900      -0.04899600       1.96522700
H        0.87578500       1.95933100      -0.15955700
H        0.90095800       2.25651600       1.46598300
