18
Properties=species:S:1:pos:R:3 pbc="F F F"
C       -1.08091800      -1.16885800       1.13884700
C       -1.34911700       0.32847900       1.06974000
C       -0.71955100       1.03151900      -0.14162200
C        0.81718700       1.06940500      -0.12166400
C        1.53056100      -0.16963500      -0.60338500
C        1.11974500      -0.99601300      -1.56619300
H       -1.57834200      -1.60641900       2.00233900
H       -0.01674400      -1.37394500       1.22371000
H       -1.44793300      -1.67421100       0.24819300
H       -0.98806500       0.80351600       1.98892800
H       -2.43157400       0.49756500       1.04475700
H       -1.08710100       2.06387400      -0.16276600
H       -1.07132300       0.56369400      -1.06615500
H        1.16190300       1.30508100       0.89156700
H        1.15422600       1.91103100      -0.74422500
H        2.50132400      -0.35447300      -0.14057200
H        0.17117800      -0.86323700      -2.07235300
H        1.72500100      -1.84186000      -1.86775500
