21
Properties=species:S:1:pos:R:3 pbc="F F F"
C       -1.48047900      -0.44716100      -2.09030700
C       -1.82414200       0.58961800      -1.02795900
C       -1.15932500       0.34324300       0.33424600
C        0.36919100       0.49378900       0.33061000
C        1.06667900       0.44326700       1.70676200
C        2.04433300      -0.60705800       1.16699500
C        1.22511500      -0.70856500      -0.12502600
H       -2.02801900      -0.24857400      -3.00969200
H       -1.73880100      -1.45020600      -1.75669300
H       -0.41897200      -0.43580300      -2.32590700
H       -2.91073700       0.60720200      -0.88736500
H       -1.54764800       1.58544700      -1.39153500
H       -1.43070300      -0.65245100       0.70131400
H       -1.57606300       1.05810600       1.05419400
H        0.64253100       1.40703600      -0.21771900
H        0.42439900       0.06616200       2.50657000
H        1.51513100       1.38051400       2.04732200
H        2.12065500      -1.52709000       1.75231600
H        3.05521000      -0.22168500       1.01332100
H        0.65983100      -1.64025800      -0.20364800
H        1.78496100      -0.57120300      -1.05440500
