17
Properties=species:S:1:pos:R:3 pbc="F F F"
C       -3.44260000       0.43365800      -0.82944000
C       -2.23602600       0.39505900      -0.87806500
C       -0.77509500       0.34641300      -0.94301400
C       -0.15292700      -0.43474500       0.22778400
C        1.36322800      -0.51360200       0.12084600
C        2.22114500       0.59399000       0.65317100
C        2.19531800      -0.73149000       1.34757900
H       -4.50321300       0.46977900      -0.78822200
H       -0.38276700       1.37169500      -0.95578000
H       -0.47549000      -0.11058500      -1.89581900
H       -0.57502100      -1.44581700       0.24943000
H       -0.43274400       0.04000100       1.17274300
H        1.72344300      -0.99568100      -0.78997400
H        1.73055600       1.42849600       1.14365800
H        3.11651200       0.86020000       0.10067900
H        1.68822100      -0.78838400       2.30522000
H        3.07224800      -1.36540000       1.26490800
