15
Properties=species:S:1:pos:R:3 pbc="F F F"
N       -0.70492500       0.60973700       2.30029100
C       -1.60127900       0.69725400       1.15054700
C       -0.97334000       0.21861300      -0.13193000
C        0.21954000      -0.37960000      -0.23597300
C        0.80144700      -0.87490900      -1.53660000
O        2.16554100      -0.49575700      -1.67441700
H       -1.18029000       0.90827300       3.14752800
H        0.11455200       1.19593500       2.16430600
H       -1.98074200       1.73286500       0.99331800
H       -2.49946200       0.09184000       1.35860000
H       -1.57160100       0.37469300      -1.03168200
H        0.81468700      -0.54605600       0.66076700
H        0.20781300      -0.49983500      -2.39768200
H        0.77043500      -1.97735500      -1.58009700
H        2.25654400       0.44939900      -1.49801900
