12
Properties=species:S:1:pos:R:3 pbc="F F F"
C       -2.55834300       0.00006400      -0.52552300
C       -1.35023800       0.00007200      -0.56430300
C        0.11084300       0.00012800      -0.60046900
C        0.84282000       1.03873600       0.26587400
O        1.54599900      -0.00016600       0.96870100
C        0.84288900      -1.03880700       0.26542100
H       -3.62022300       0.00002200      -0.49155300
H        0.44858700       0.00035300      -1.64871800
H        0.20771600       1.63674200       0.94294400
H        1.53006200       1.71893000      -0.26988900
H        0.20785200      -1.63716000       0.94224500
H        1.53019200      -1.71870900      -0.27062700
