19
Properties=species:S:1:pos:R:3 pbc="F F F"
C       -0.37429100      -1.80442600       1.05546200
C        0.44075600      -0.86965800       1.54433400
C        0.79366500       0.45397100       0.92133900
C        0.50651900       0.64163100      -0.59008100
C       -0.97474700       0.59300500      -0.93016300
C       -1.90533500       1.37184700      -0.37628400
C        1.32020700      -0.33028400      -1.45245600
H       -0.56973600      -2.71333400       1.61185900
H       -0.87425900      -1.68993500       0.10171800
H        0.90194500      -1.04070300       2.51914200
H        1.86166900       0.64076400       1.09498500
H        0.26950100       1.24404500       1.47794500
H        0.86063000       1.66053700      -0.83065300
H       -1.27317700      -0.10996400      -1.70882400
H       -1.66069800       2.09087200       0.39720100
H       -2.94363600       1.30438700      -0.67689700
H        1.04022100      -1.36355300      -1.26238800
H        2.38398600      -0.22972100      -1.24640900
H        1.16290300      -0.12990600      -2.51058700
