17
Properties=species:S:1:pos:R:3 pbc="F F F"
C        0.09421200       2.02668200       0.21578900
C       -0.46457100       0.92531800       1.10732000
C       -0.17183500      -0.50858500       0.59954900
C       -0.79229000      -0.74394100      -0.77366500
C       -0.15184900      -1.19613900      -1.85150600
N        1.26845400      -0.79899000       0.66754700
H       -0.16697300       3.00739200       0.60839100
H       -0.30268400       1.95170700      -0.79439000
H        1.17893100       1.97211300       0.15391600
H       -1.54954100       1.04913500       1.19639800
H       -0.05400000       1.02935200       2.11615300
H       -0.67869400      -1.20322400       1.30136300
H       -1.85931700      -0.52712400      -0.84601600
H        0.90869400      -1.42149200      -1.82984300
H       -0.66971700      -1.35149900      -2.79012800
H        1.78425600      -0.17643000       0.04997900
H        1.44787000      -1.75701000       0.37642000
