16
Properties=species:S:1:pos:R:3 pbc="F F F"
O       -1.12859200       0.72300600      -1.34682900
C        0.29086700       0.61296100      -1.38841100
C        0.75148400      -0.63674900      -0.63807200
C        0.33663000      -0.69191300       0.85391400
O       -1.07879100      -0.81232100       0.96331300
C        0.84172600       0.51235800       1.66896900
H       -1.41423600       1.48445500      -1.86927400
H        0.74725200       1.52734200      -0.95551500
H        0.62594700       0.56534900      -2.44552300
H        1.84272900      -0.70383900      -0.71539100
H        0.34701100      -1.52042600      -1.14118000
H        0.77273600      -1.61365700       1.29201500
H       -1.48557100      -0.24567500       0.28516500
H        0.38443900       1.44062500       1.33297700
H        1.92250100       0.61706100       1.58732700
H        0.59201300       0.38334600       2.71913200
