21
Properties=species:S:1:pos:R:3 pbc="F F F"
C       -1.48198700      -0.15398100      -1.72976800
C       -1.74301900      -0.69683800      -0.33113600
C       -0.89364100      -0.01228600       0.75709300
C        0.59602400      -0.25633900       0.60879300
C        1.48535300       0.67061400       0.20484800
C        1.20936600       2.08944600      -0.18902000
C        1.06303300      -1.64469400       0.96714800
H       -2.09967500      -0.66709700      -2.46433200
H       -0.44021300      -0.28785600      -2.01147800
H       -1.70818500       0.90911800      -1.78493600
H       -1.55457000      -1.77577400      -0.31722200
H       -2.80213700      -0.56587000      -0.08236000
H       -1.21623200      -0.39377500       1.73418800
H       -1.10946200       1.05951900       0.75553500
H        2.53344000       0.37565200       0.14507300
H        0.16389700       2.36247800      -0.07455700
H        1.48759600       2.26096100      -1.23090800
H        1.80683400       2.77767600       0.41183800
H        0.56415300      -2.39731200       0.35457400
H        0.82735200      -1.87917200       2.00692000
H        2.13642400      -1.75408100       0.82991800
