10
Properties=species:S:1:pos:R:3 pbc="F F F"
C       -1.60761500       0.56021300      -0.31561300
O       -0.23267000       0.61928900       0.01172500
C        0.43387600      -0.55969500       0.04004100
C        1.74107300      -0.63686000       0.34021100
H       -2.00172500       1.58005200      -0.30657200
H       -2.16780600      -0.04528100       0.41500400
H       -1.76327000       0.12623700      -1.31638000
H       -0.16209100      -1.45311600      -0.19955900
H        2.31283700       0.25011100       0.57338000
H        2.23941300      -1.59426200       0.35249200
