18
Properties=species:S:1:pos:R:3 pbc="F F F"
N        0.58810800       1.62330600       1.35995300
C        1.47879000       0.62301500       0.73633200
C        0.30698400      -0.37973700       0.65725600
C       -0.60101400       0.79013200       1.08366300
C        0.06331600      -1.08851800      -0.67057900
C       -1.32407100      -1.35811800      -1.16983900
C       -0.45172700      -0.37111500      -1.88072900
H        0.58314700       2.53059200       0.88922800
H        2.33625000       0.33291000       1.36585600
H        1.86989100       0.93448300      -0.24606700
H        0.37734300      -1.13757900       1.45277900
H       -1.23761200       0.61518600       1.96668700
H       -1.24183900       1.19138200       0.28185800
H        0.79362800      -1.87513700      -0.87588400
H       -2.15792100      -0.96799700      -0.59477600
H       -1.52058500      -2.30838200      -1.65618100
H       -0.70218000       0.68124700      -1.79083900
H       -0.05055100      -0.65379900      -2.84895500
