16
Properties=species:S:1:pos:R:3 pbc="F F F"
C        1.29557000      -2.06138600       0.02430600
C        1.25923700      -0.55099300      -0.16849400
C       -0.14994700      -0.03281900      -0.47642900
C       -1.16872900       0.02931700       0.66938300
C       -1.16900000       1.53445000       0.43380800
O       -0.18861200       1.41464600      -0.61506300
H        2.31040700      -2.40550700       0.21087600
H        0.92408500      -2.57815800      -0.85895200
H        0.67986800      -2.36473900       0.86944000
H        1.92397800      -0.26770400      -0.99068100
H        1.64475500      -0.05419300       0.72740400
H       -0.54222000      -0.51914300      -1.39680300
H       -0.79293500      -0.28876300       1.64558400
H       -2.11912600      -0.47861500       0.48417400
H       -0.80546000       2.16046800       1.26975700
H       -2.11723700       1.96776500       0.06426800
