15
Properties=species:S:1:pos:R:3 pbc="F F F"
C       -1.39068100       1.85437000       0.75571300
N       -1.42778300       0.83796700      -0.29224000
C       -0.79551800      -0.44706200       0.06408500
C        0.72684100      -0.37066100       0.21423400
C        1.63640500      -0.65544900      -0.91667300
O        1.43087800      -1.61176300       0.11509900
H       -1.93434700       2.74098100       0.42049500
H       -0.36924100       2.17322400       1.03186500
H       -1.87536700       1.47662100       1.65927400
H       -1.02159800       1.20610700      -1.15546800
H       -1.04386300      -1.18470200      -0.71192300
H       -1.24229700      -0.80403700       1.00232800
H        1.10252800       0.28312700       1.01890800
H        2.64136000      -0.21429100      -0.94798100
H        1.22799700      -0.93588500      -1.89676300
