12
Properties=species:S:1:pos:R:3 pbc="F F F"
C       -2.12089000      -0.09939600       0.35701000
C       -0.79434400      -0.02018600       0.13720900
C        0.10220600       1.18016000       0.23479700
O        1.39350000       0.67919400      -0.10213300
C        1.30890900      -0.70274100      -0.38415300
O       -0.04335500      -1.09132900      -0.22669600
H       -2.67829700       0.77970100       0.64456600
H       -2.64541200      -1.03754700       0.24902900
H        0.12266800       1.62348700       1.24913000
H       -0.18218200       1.99036200      -0.46422000
H        1.95877400      -1.28988700       0.31075200
H        1.64800600      -0.91605200      -1.42780200
