10
Properties=species:S:1:pos:R:3 pbc="F F F"
O       -2.76967100      -0.06455900       0.29439300
C       -1.56400500      -0.12755000       0.37467700
C       -0.66705300       0.32349900      -0.72577100
C        0.68308000       0.29345200      -0.72382400
C        1.55555100      -0.19688200       0.37905500
O        2.76312300      -0.18629000       0.30284900
H       -1.06333900      -0.53705900       1.30293700
H       -1.17769300       0.71338700      -1.60729500
H        1.21352900       0.66029800      -1.60349400
H        1.03445100      -0.58495000       1.30509400
