17
Properties=species:S:1:pos:R:3 pbc="F F F"
C       -2.44293800       0.56141000       0.27852000
O       -1.03027300       0.55390600       0.27286400
C       -0.47092700      -0.66767800       0.75242900
C        1.05547500      -0.59886900       0.74471500
C        1.66996900      -0.55361700      -0.66051800
N        1.49459400       0.76220800      -1.27229600
H       -2.78192000       1.53757400      -0.08163800
H       -2.84280400       0.39507400       1.29566300
H       -2.85442700      -0.22683500      -0.37903700
H       -0.83022100      -1.51499500       0.12700400
H       -0.84104400      -0.86413300       1.78336500
H        1.43888500      -1.47939500       1.27379200
H        1.38315000       0.27604400       1.31331900
H        1.22580800      -1.36513300      -1.27840900
H        2.74703100      -0.78024100      -0.59455800
H        0.52851300       1.06842400      -1.16819100
H        1.73759400       0.73942700      -2.25902100
