16
Properties=species:S:1:pos:R:3 pbc="F F F"
C       -0.29568000      -2.16245900      -0.82736600
C        0.64507700      -1.20487100      -0.10413300
C       -0.09974600      -0.22035300       0.78881900
O        0.61881400       0.94322200       1.21140100
C       -0.52138100       1.13934400       0.36466700
C       -0.27007500       1.71740000      -1.01170000
H        0.26375500      -2.87578600      -1.42850400
H       -0.97263000      -1.62576700      -1.48945900
H       -0.90138200      -2.72524800      -0.11929300
H        1.25425000      -0.66103600      -0.83124900
H        1.34404500      -1.78209400       0.51175400
H       -0.67888400      -0.69251400       1.60257800
H       -1.38091700       1.58591500       0.89513900
H        0.63386600       1.31026300      -1.45711900
H       -0.15680200       2.79940700      -0.95631900
H       -1.10497800       1.50671700      -1.68045600
