19
Properties=species:S:1:pos:R:3 pbc="F F F"
C       -0.95365000      -0.84939900      -2.28131500
C       -1.25307600      -1.30942600      -0.85911000
C       -0.76804600      -0.33904900       0.22594000
C        0.76060500      -0.24141700       0.31916400
N        1.19887100       0.56250700       1.47331300
C        0.96357700       1.99776800       1.33853400
H       -1.35625800      -1.55482400      -3.00548800
H        0.11693300      -0.76761700      -2.45693400
H       -1.39829900       0.12405400      -2.47871300
H       -0.80460500      -2.29552000      -0.69442900
H       -2.33489800      -1.44520900      -0.75185000
H       -1.16159100      -0.66639600       1.19397000
H       -1.19178500       0.65356100       0.04158400
H        1.16992700       0.15927800      -0.63193500
H        1.18287000      -1.24952300       0.43959300
H        2.19473100       0.39786700       1.63623600
H       -0.10833300       2.21201200       1.31634300
H        1.40807000       2.42675700       0.42170500
H        1.39468600       2.51715100       2.19744900
