18
Properties=species:S:1:pos:R:3 pbc="F F F"
C       -1.47895200      -0.02093800       0.95674400
C        0.04481400      -0.14541600       0.87145300
C        0.57855500      -0.28235500      -0.60604800
N        0.13942900      -1.54327000      -1.23852200
C        0.19753600       0.89994300      -1.50175700
N        0.67331900       0.98574300       1.58425300
H       -1.96777400      -0.85067600       0.45000300
H       -1.82557900       0.90494400       0.50171100
H       -1.80324000      -0.02090600       1.99469500
H        0.34224200      -1.07184900       1.40038500
H        1.68339600      -0.31708400      -0.53881300
H       -0.86185900      -1.52346800      -1.41595400
H        0.34334400      -2.33532900      -0.63350800
H       -0.87905900       0.95088400      -1.65359900
H        0.66510200       0.80183400      -2.47867600
H        0.52270500       1.84199400      -1.06443400
H        0.35381300       1.87120400       1.19912100
H        1.68595700       0.94373500       1.49659300
