17
Properties=species:S:1:pos:R:3 pbc="F F F"
C       -1.49796900       0.44855200      -0.03456300
C       -0.02027500       0.18254000       0.05678400
C        0.61885400      -0.22727300       1.16825000
C        0.02193000      -0.49844100       2.51519600
C        0.76766700       0.44498000      -1.21653100
N        0.20468800      -0.27510100      -2.36477900
H       -1.68665500       1.51534400      -0.17166600
H       -2.03725200       0.12244600       0.85058000
H       -1.91853200      -0.05978400      -0.90167300
H        1.69660900      -0.38509600       1.10470400
H       -1.05013300      -0.32393000       2.54171900
H        0.48410000       0.13546600       3.27435900
H        0.20406800      -1.53183900       2.81669400
H        1.83572100       0.19071200      -1.05074000
H        0.74111700       1.52359900      -1.44626800
H        0.21056600      -1.27756400      -2.19505100
H        0.74632600      -0.08580000      -3.20402500
