16
Properties=species:S:1:pos:R:3 pbc="F F F"
C       -1.89341400       0.56064700      -1.91623200
C       -0.66648000      -0.26788900      -1.58404700
O       -0.22745600       0.04861600      -0.26396400
C        0.87506100      -0.62239600       0.17620800
C        1.40376600      -0.42584100       1.39846000
C        0.85458600       0.53743900       2.40907900
H       -2.24875000       0.33509600      -2.91946000
H       -1.66898600       1.62393800      -1.86657900
H       -2.70033000       0.35734400      -1.21551200
H        0.14861500      -0.06820400      -2.30931700
H       -0.89423400      -1.35118500      -1.65482800
H        1.31383700      -1.34150400      -0.53091800
H        2.28358500      -0.99935200       1.67590600
H       -0.01779100       1.05180700       2.01654800
H        1.59866700       1.28738200       2.68673200
H        0.56392500       0.02399300       3.32832600
