13
Properties=species:S:1:pos:R:3 pbc="F F F"
C       -3.20335000      -0.20662000      -0.14417000
C       -1.74862800      -0.22999500      -0.16218900
C       -0.53561000      -0.25992000      -0.18068400
C        0.90829600      -0.27907600      -0.19300300
C        1.61090000      -1.22890700      -0.85074000
C        1.57178500       0.77626600       0.53863200
C        2.12340200       1.66238400       1.15309800
H       -3.57347100       0.80352500       0.03968400
H       -3.58939000      -0.85752200       0.64286000
H       -3.60943600      -0.55109700      -1.09704200
H        1.10724500      -2.01627800      -1.39595400
H        2.69287900      -1.22188700      -0.84609500
H        2.61140200       2.43846200       1.69088500
