21
Properties=species:S:1:pos:R:3 pbc="F F F"
C       -1.19070900       2.69770100       0.47778400
C       -1.59292900       1.55741300      -0.45028000
C       -0.87320700       0.23288600      -0.15727700
C        0.62354700       0.27189700      -0.48186500
C        1.39916800      -1.00719600      -0.17597700
C        1.13944000      -1.84653100       1.03795400
C        0.81310600      -2.37825800      -0.32313400
H       -1.77675800       3.58978900       0.26669000
H       -0.14019900       2.95488000       0.36073200
H       -1.35308300       2.42873300       1.51964100
H       -1.41157200       1.85195400      -1.48956000
H       -2.67267400       1.39443000      -0.36273000
H       -1.35073500      -0.55960900      -0.74356500
H       -1.01911200      -0.03009000       0.89543600
H        1.09153700       1.09901900       0.06604600
H        0.75069900       0.51269000      -1.54525700
H        2.45194100      -0.92908000      -0.45743600
H        0.31235300      -1.57913900       1.68720200
H        1.99406700      -2.26885200       1.55742200
H       -0.23407200      -2.47070700      -0.59084900
H        1.44711500      -3.16149100      -0.72699700
