15
Properties=species:S:1:pos:R:3 pbc="F F F"
C       -1.07996500      -0.29899400      -1.53518100
C       -1.40183200      -0.91299600      -0.17927000
C       -0.82132700      -0.14405200       1.01590200
C        0.71243900      -0.19912200       1.12721700
C        1.41082500       0.66450400       0.17507200
N        1.98823200       1.35314300      -0.54434500
H       -1.57612400      -0.85194700      -2.32995300
H       -0.01163200      -0.31378700      -1.73416100
H       -1.41506600       0.73460000      -1.58457000
H       -1.04558500      -1.94863400      -0.15064900
H       -2.48915700      -0.96081000      -0.05707100
H       -1.23800400      -0.56655500       1.93667000
H       -1.14647900       0.89977000       0.97916000
H        1.06761900      -1.22808800       0.99248000
H        1.01596300       0.10741400       2.13607100
