21
Properties=species:S:1:pos:R:3 pbc="F F F"
C       -2.90967800       1.20963200      -0.63081500
C       -1.40037900       1.01370200      -0.57002500
C       -0.98713800      -0.02986600       0.48366400
C        0.51405300      -0.23742100       0.55657100
C        1.22649100       0.25525200       1.57911700
C        1.11832900      -1.03151800      -0.58373000
C        2.62602500      -1.22847400      -0.53136000
H       -3.17337000       1.95570100      -1.37770900
H       -3.30039600       1.54312500       0.32849200
H       -3.41608800       0.28189700      -0.89035800
H       -0.91594700       1.96823900      -0.34237600
H       -1.03245500       0.70775900      -1.55513700
H       -1.47799400      -0.98255300       0.24983500
H       -1.36192200       0.28592900       1.46201100
H        0.74469500       0.81280500       2.37311000
H        2.29775100       0.11921800       1.64944000
H        0.84968100      -0.54276000      -1.52952000
H        0.62495700      -2.01214000      -0.61993600
H        3.15002400      -0.27529200      -0.54329900
H        2.96077000      -1.80456700      -1.39169200
H        2.92407100      -1.76519800       0.36660900
