14
Properties=species:S:1:pos:R:3 pbc="F F F"
C       -0.27578200       2.01566600       0.29323500
N        0.07012000       0.70218900       0.83397800
C        0.52152100      -0.25148500      -0.17436500
C        0.33570700      -1.70905600       0.07483200
C       -0.46669800      -1.03056600      -1.00450500
H       -0.58805800       2.67543000       1.10634700
H       -1.09211400       1.98150300      -0.44999600
H        0.59555700       2.46201000      -0.19372000
H       -0.72188500       0.31420000       1.35059700
H        1.44648100       0.05823300      -0.67077900
H       -0.19477400      -2.01315500       0.97163400
H        1.11826800      -2.39446500      -0.23494200
H       -1.52505300      -0.88353100      -0.81714700
H       -0.21775100      -1.26290400      -2.03501400
