16
Properties=species:S:1:pos:R:3 pbc="F F F"
C       -0.00295000       0.26460600      -2.09565000
C       -0.55502600       0.10717000      -0.67440200
C       -0.11103800      -1.20630300       0.02783100
C        0.36434300      -0.80951500       1.43966200
C        0.38555900       0.69327400       1.41954500
C       -0.10043400       1.19153100       0.27936600
H       -0.36757600      -0.53082000      -2.74334700
H        1.08446900       0.22913600      -2.10217600
H       -0.30992700       1.21579800      -2.52718800
H       -1.65832800       0.13484300      -0.74366400
H        0.70300700      -1.68000300      -0.52831700
H       -0.92461000      -1.93565500       0.06569400
H        1.34934200      -1.23020000       1.67739500
H       -0.31528700      -1.18122700       2.21830800
H        0.74657500       1.28433400       2.25659300
H       -0.19038800       2.24921900       0.04859500
