14
Properties=species:S:1:pos:R:3 pbc="F F F"
C       -2.61411700       0.37835600      -1.27892800
O       -1.26413200       0.74317000      -1.06368600
C       -0.61585100       0.09754000      -0.05691400
C        0.68050200       0.33494500       0.22103700
C        1.41791100      -0.35482100       1.34324500
O        2.61264800      -0.97822500       0.88035700
H       -3.02024400       1.03158700      -2.05584800
H       -3.21293700       0.49644100      -0.36195300
H       -2.69680900      -0.66844100      -1.61415200
H       -1.21431000      -0.62232900       0.52185200
H        1.22994300       1.05520200      -0.38033200
H        0.75620500      -1.10715700       1.82765600
H        1.71563600       0.36227300       2.12890400
H        2.44371500      -1.40326200       0.02985700
