12
Properties=species:S:1:pos:R:3 pbc="F F F"
C        0.03603000       0.53281800       2.22661600
C       -0.37582700       0.48449600       0.77135400
N        0.40138900       1.22422300      -0.22132800
C        0.47047200      -0.24411800      -0.23575000
C       -0.14128900      -0.93307400      -1.36110200
N       -0.62308800      -1.52510200      -2.22377400
H       -0.32649400       1.44485700       2.69942800
H        1.11908800       0.50713400       2.33202400
H       -0.37735400      -0.31026200       2.77878900
H       -1.45585900       0.50647300       0.59164000
H        1.25047100       1.61574800       0.19470300
H        1.40572000      -0.69852900       0.11242200
