21
Properties=species:S:1:pos:R:3 pbc="F F F"
C       -3.23974100       0.03555000      -0.31416700
C       -1.75586600      -0.15101000      -0.24746600
C       -0.87329300       0.71843000      -0.75528100
C        0.62838700       0.58691500      -0.75664800
C        1.23323600      -0.43816500       0.22744100
C        2.72003900      -0.66066200      -0.08160200
C        1.04360000      -0.00130100       1.68585600
H       -3.71333400      -0.79369700      -0.84281600
H       -3.50399700       0.95908500      -0.82422400
H       -3.67609300       0.06137800       0.68606700
H       -1.41127600      -1.05682900       0.24950700
H       -1.25435000       1.61041300      -1.25546100
H        1.06601900       1.57413900      -0.56071700
H        0.95084900       0.33026800      -1.77684800
H        0.71696600      -1.40112500       0.08698500
H        3.28638000       0.26168100       0.03332600
H        2.85854900      -1.01313600      -1.10207100
H        3.14893200      -1.40046000       0.59122800
H        1.56627500       0.93286700       1.88262800
H        1.43544400      -0.75269900       2.36866600
H       -0.00853700       0.14957200       1.91492900
