16
Properties=species:S:1:pos:R:3 pbc="F F F"
C       -1.98268800       0.51986300       0.34781000
C       -0.56013300       0.96814800       0.15154500
C       -0.11464100       2.13306600       0.64248300
C        0.34572600       0.03842900      -0.62756300
C        0.75503500      -1.21291100       0.17607300
O        1.60335700      -2.05272700      -0.58629500
H       -2.55407600       1.24919600       0.91606500
H       -2.02325000      -0.43351500       0.87699500
H       -2.47687300       0.37016400      -0.61320700
H       -0.76715500       2.79110100       1.20266300
H        0.91015700       2.44956400       0.49308200
H        1.24931300       0.57160800      -0.93555500
H       -0.16180700      -0.28367700      -1.54651800
H       -0.14861900      -1.77366700       0.49780000
H        1.30438400      -0.92718700       1.08415500
H        1.18126700      -2.27134700      -1.42720800
