17
Properties=species:S:1:pos:R:3 pbc="F F F"
C       -1.74669100       0.68004500      -0.07981200
N       -1.68233000      -0.76796100       0.15277500
C       -0.32769200      -1.24284800      -0.15832700
C        0.56330200      -0.00703100      -0.00359600
C       -0.34754400       1.19548800       0.26007300
C        1.86237800       0.13389700      -0.72875800
N        1.83839800      -0.13964100       0.71135300
H       -2.53010700       1.14235900       0.54152100
H       -2.00130900       0.92015400      -1.13356600
H       -2.40301200      -1.27549200      -0.36194600
H       -0.26205100      -1.65392000      -1.18708600
H       -0.02929500      -2.05903400       0.51955400
H       -0.07415000       2.07492900      -0.33182900
H       -0.29115500       1.49416600       1.31320900
H        2.19131600       1.12790400      -1.04087000
H        2.23632200      -0.68428600      -1.34761000
H        2.04844900       0.70913300       1.24225300
