23
Properties=species:S:1:pos:R:3 pbc="F F F"
C        2.04121100      -0.37417700      -2.62439600
C        1.68052000      -0.30269600      -1.14548400
C        0.18485700      -0.04725100      -0.92051300
C       -0.23417400      -0.05169300       0.56882700
C       -1.77776300      -0.08097700       0.68030000
C       -2.29334100      -0.33453300       2.09167000
C        0.36251900       1.13974700       1.32978900
H        3.10553800      -0.55788800      -2.75620500
H        1.79648100       0.55640100      -3.13267800
H        1.49848800      -1.17572700      -3.12177500
H        2.26997400       0.48718600      -0.66887400
H        1.96849500      -1.23922900      -0.65522200
H       -0.38778300      -0.81705000      -1.45057600
H       -0.09489100       0.90798900      -1.37800800
H        0.15415400      -0.97614200       1.02709800
H       -2.18784800       0.86293000       0.30579700
H       -2.16216300      -0.86479300       0.01816200
H       -2.00902200       0.46504100       2.77216500
H       -1.89905900      -1.26717800       2.49077700
H       -3.37946900      -0.40171400       2.09531100
H        0.00090100       2.08280100       0.92390900
H        1.44844100       1.14256400       1.26552200
H        0.09479000       1.10428700       2.38343900
