17
Properties=species:S:1:pos:R:3 pbc="F F F"
C       -1.41561600      -0.69143800      -0.36113300
C       -1.45119300       0.77664400      -0.02781100
C       -0.34661800       1.46601000       0.29081500
C        0.99276800       0.82214500       0.35051000
C        1.03560300      -0.68341200       0.35737100
C       -0.28276900      -1.44059100       0.35650400
C        1.50451300       0.06148700      -0.85186500
H       -1.30580300      -0.81708900      -1.44842800
H       -2.37722000      -1.15420700      -0.11009600
H       -2.41605700       1.27949400      -0.07109800
H       -0.41004400       2.52745200       0.52641500
H        1.74581800       1.35098400       0.93729300
H        1.81626900      -1.13947000       0.97032600
H       -0.57607900      -1.62632400       1.39740800
H       -0.15349200      -2.42982300      -0.10100400
H        0.88360800       0.04920300      -1.74112200
H        2.57285700       0.09469900      -1.04604300
