17
Properties=species:S:1:pos:R:3 pbc="F F F"
C       -1.94079900       1.26266800       0.77122400
C       -0.42610900       1.16793300       0.66123300
C        0.05585400      -0.22470900       0.16677000
C       -0.44479100      -0.51222900      -1.19025500
C       -0.84638800      -0.75847400      -2.30297400
C        1.57281200      -0.30751200       0.20202100
C        2.25663600      -1.07951600       1.04526900
H       -2.23969900       2.24817800       1.12256600
H       -2.32954700       0.52491500       1.47074500
H       -2.41289500       1.09007100      -0.19304100
H        0.02844500       1.36439900       1.63754600
H       -0.05412100       1.94115700      -0.01785700
H       -0.35547800      -0.99124800       0.84584500
H       -1.20188800      -0.97560000      -3.28018400
H        2.10701800       0.32523300      -0.50643000
H        1.75494900      -1.72142000       1.76092900
H        3.33992400      -1.09465800       1.04015100
