19
Properties=species:S:1:pos:R:3 pbc="F F F"
C       -1.62778500       0.00107600       0.03797600
C       -0.81352600      -1.28847500      -0.19275200
C        0.68291700      -1.04857000       0.06351700
C        1.20185700      -0.00052600      -0.93300300
C        0.68431900       1.04761600       0.06414300
C       -0.81180300       1.28968100      -0.19196600
C        0.87993500      -0.00093900       1.17239900
H       -1.99389700       0.00100300       1.06991100
H       -2.52200800       0.00187100      -0.59349700
H       -0.95000600      -1.64818500      -1.21938000
H       -1.19403100      -2.08022300       0.46275100
H        1.23718100      -1.99672400       0.14421900
H        0.77031200       0.00006000      -1.93870700
H        2.29217300      -0.00123300      -1.00980000
H        1.23985600       1.99497400       0.14541800
H       -0.94781300       1.65021500      -1.21836700
H       -1.19123600       2.08152700       0.46403900
H        0.18142100      -0.00072400       2.01353400
H        1.90256100      -0.00174000       1.55799500
