14
Properties=species:S:1:pos:R:3 pbc="F F F"
C       -1.80459400       1.76562400       0.79209700
C       -0.33199200       1.52419800       0.94137200
C        0.34999300       0.49380900       0.39683500
C       -0.25172500      -0.55020100      -0.43467400
N        0.34499500      -1.57187300      -0.99296700
N        1.71114000      -1.72797300      -0.85641700
H       -2.09813600       2.68406400       1.29366800
H       -2.39153600       0.95148900       1.22099600
H       -2.09525800       1.84907500      -0.25606500
H        0.21894700       2.24728200       1.54138000
H        1.42252500       0.44618800       0.58178300
H       -1.33005900      -0.47687700      -0.61808100
H        1.99334600      -2.70154600      -0.97002900
H        2.11713000      -1.30133700      -0.02174600
