16
Properties=species:S:1:pos:R:3 pbc="F F F"
N       -1.21795700       0.18082600      -1.77400300
C       -0.79415200       0.04451400      -0.37270500
C        0.07503100      -1.19685400      -0.06650100
N        0.79679100      -0.83052400       1.15398700
C        0.97802500       0.63404500       1.19874000
C        0.08306900       1.21878400       0.09895400
H       -1.81841500      -0.59383000      -2.04575000
H       -0.41114000       0.19538300      -2.39399600
H       -1.70588100       0.00046600       0.24865800
H        0.76073400      -1.40777700      -0.91392800
H       -0.52529200      -2.10938600       0.08484500
H        1.67992400      -1.33202800       1.25109000
H        2.03574200       0.91203300       1.04543400
H        0.70390600       1.02622900       2.19517900
H        0.68949100       1.58903700      -0.73402000
H       -0.51274000       2.06482600       0.45166300
