21
Properties=species:S:1:pos:R:3 pbc="F F F"
C        1.20103800       0.96501600      -1.69858400
C        0.45532500      -0.11194000      -0.90176400
C       -1.08066600       0.04808800      -0.99699600
C       -1.62768000       1.37646000      -0.48831600
C        0.95540700      -0.15771800       0.56315000
C        0.41236500      -1.32911100       1.33318200
C       -0.16567500      -1.24674600       2.53219700
H        2.27073700       0.76410100      -1.71116000
H        1.05481000       1.95255000      -1.26635300
H        0.85214800       0.99539600      -2.72886500
H        0.69674300      -1.08744400      -1.35752100
H       -1.37877800      -0.08263200      -2.04331000
H       -1.54893700      -0.76891000      -0.43840600
H       -1.24392800       2.21341500      -1.06792500
H       -1.36427200       1.54114900       0.55404600
H       -2.71307300       1.39155800      -0.56306600
H        0.71449200       0.77671000       1.07835400
H        2.05202200      -0.22787300       0.54617700
H        0.52790000      -2.30697900       0.86265900
H       -0.29978700      -0.29407700       3.03129100
H       -0.52076000      -2.13126600       3.04686200
