15
Properties=species:S:1:pos:R:3 pbc="F F F"
C       -3.11665600      -0.10191400      -0.27993800
C       -1.66153900      -0.09820200      -0.32137900
C       -0.44890200      -0.09585900      -0.36610200
C        0.99502100      -0.09248400      -0.41558200
C        1.64852900      -0.37295500      -1.56751800
C        1.73776700       0.22265200       0.81667600
C        1.17410700       0.50818800       1.99742300
H       -3.47973500       0.09818800       0.72976500
H       -3.51038300      -1.06955700      -0.59679300
H       -3.52466400       0.66181900      -0.94496800
H        1.11324500      -0.60660500      -2.47827400
H        2.73130000      -0.36995000      -1.60277000
H        2.82418000       0.21394000       0.72684800
H        0.09694000       0.52481600       2.11674800
H        1.77915200       0.73079400       2.86796400
