17
Properties=species:S:1:pos:R:3 pbc="F F F"
C       -2.43867400      -0.22196000      -0.18162400
C       -0.96542800       0.04165400       0.03454900
C       -0.59371900       1.01975900       0.88139700
C        0.77472300       1.48085200       1.26714500
C       -0.09760900      -0.89483300      -0.79330800
C        1.36057300      -0.82557100      -0.70843900
C        2.56549700      -0.91942500      -0.77056100
H       -3.05491300       0.45121500       0.40912400
H       -2.69844500      -1.24678700       0.09049300
H       -2.71000100      -0.09688800      -1.23168300
H       -1.40176100       1.56906500       1.36861100
H        1.56320100       0.93161100       0.76719400
H        0.91707300       1.38003900       2.34489800
H        0.89486600       2.54071400       1.03459000
H       -0.37553100      -0.76371500      -1.85162300
H       -0.39449400      -1.92823200      -0.55237900
H        3.62782700      -0.91988200      -0.75417800
