12
Properties=species:S:1:pos:R:3 pbc="F F F"
C       -2.42530400      -0.43085100       1.38525800
C       -1.09067900      -0.33268000       1.27952400
O       -0.47835700      -0.04427600       0.10274600
C        0.94288800       0.03207000       0.13843000
C        1.47079900       0.33319200      -1.19523300
C        1.96780100       0.58030400      -2.26737000
H       -2.87820500      -0.66342100       2.33720600
H       -3.06439000      -0.28204700       0.52649100
H       -0.42386900      -0.48184500       2.14246200
H        1.36938300      -0.92683500       0.50224500
H        1.26661600       0.81691600       0.85476300
H        2.36428900       0.79922500      -3.22878900
