15
Properties=species:S:1:pos:R:3 pbc="F F F"
C       -0.21114900       1.87488600       0.48138800
C       -0.54937400       0.77401800      -0.52287100
C       -0.02454900      -0.58969500      -0.11933500
C       -0.85465900      -1.59772400       0.18181500
C        1.46897000      -0.76241200      -0.09079400
H       -0.61827900       2.82901000       0.15271900
H        0.86476700       1.99068700       0.59402000
H       -0.62794200       1.65078100       1.46065900
H       -0.13033000       1.04462800      -1.50014600
H       -1.63486700       0.72321300      -0.64953900
H       -1.92938400      -1.46616700       0.15731100
H       -0.47601700      -2.57311200       0.46149200
H        1.90487300      -0.52369900      -1.06170400
H        1.74611800      -1.78099600       0.16874900
H        1.92562600      -0.08878300       0.63522400
