14
Properties=species:S:1:pos:R:3 pbc="F F F"
C       -1.16140700       0.67202400       1.64571300
O       -1.45095300       0.34356500       0.29880600
C       -0.94824000      -0.91671200      -0.13377300
C        0.58812100      -0.94665600      -0.24126800
C        1.14492400       0.18809100      -1.10315500
O        2.16883700       0.77138600      -0.85870800
H       -1.71870000       1.57935500       1.89582700
H       -0.08533700       0.86394600       1.79799800
H       -1.46727700      -0.13920000       2.32965200
H       -1.39369700      -1.10712700      -1.12357100
H       -1.29186100      -1.72019800       0.55032900
H        0.88743700      -1.89760800      -0.70021400
H        1.05687900      -0.91794500       0.74603200
H        0.52909300       0.43868600      -2.02193400
