11
Properties=species:S:1:pos:R:3 pbc="F F F"
C       -3.22842800      -0.44970900       0.07308900
C       -1.77425700      -0.39724600       0.06368400
C       -0.56424100      -0.28694000       0.04653500
C        0.87000200      -0.30857100       0.05066600
N        1.56167900       0.78064600      -0.12764200
O        2.92302600       0.55556700      -0.08990500
H       -3.64528000       0.22246500      -0.67950900
H       -3.62073500      -0.15107000       1.04762100
H       -3.58421300      -1.45978400      -0.13858800
H        1.35721000      -1.28402100       0.21094500
H        3.35860200       1.41814700      -0.23157600
