19
Properties=species:S:1:pos:R:3 pbc="F F F"
C       -2.00761200      -0.68099400       2.01661400
C       -1.28654300       0.07339400       1.18651500
C       -0.85647300      -0.35076000      -0.19549700
C        0.65140800      -0.27358000      -0.37919800
C        1.28684900       0.70258400      -1.05383600
C        0.67261200       1.88458200      -1.73868800
C        1.42968700      -1.38832600       0.27003400
H       -2.29848300      -0.31870700       2.99534400
H       -2.32827300      -1.67930500       1.74125200
H       -0.97869600       1.07166200       1.49839900
H       -1.35837700       0.28887500      -0.93142300
H       -1.19435700      -1.37615100      -0.38380200
H        2.37410600       0.65006400      -1.11652900
H       -0.41375800       1.85085900      -1.74239200
H        1.01379100       1.94863800      -2.77312300
H        0.97536100       2.81346400      -1.25066200
H        1.14786700      -2.35639700      -0.14840000
H        1.21978000      -1.43437200       1.33933100
H        2.50146700      -1.26003400       0.13634500
