18
Properties=species:S:1:pos:R:3 pbc="F F F"
C        1.40328900      -0.17101900       1.42103000
C        0.77835500       0.34326300       0.10737400
C       -0.78407800       0.40856500       0.16605800
N       -1.32895700       1.02452700      -1.06048000
C       -1.44563000      -0.95641200       0.38641200
N        1.21522300      -0.44607100      -1.06326400
H        2.48883500      -0.09903800       1.38286200
H        1.14822700      -1.21314300       1.60253000
H        1.05850900       0.41267900       2.27241500
H        1.13705800       1.37752800      -0.05189600
H       -1.05407300       1.06398200       1.01539000
H       -1.07037600       0.45483000      -1.86390800
H       -0.92458700       1.94858300      -1.19506000
H       -1.22763700      -1.63741400      -0.43413300
H       -2.52580200      -0.84511700       0.44321100
H       -1.10512000      -1.41889300       1.31037000
H        0.93034400      -1.41726100      -0.95895600
H        2.22914400      -0.42230900      -1.14186300
