18
Properties=species:S:1:pos:R:3 pbc="F F F"
C        1.43839500      -0.02557800       1.43099600
C        0.79411000       0.37923200       0.09574600
C       -0.76685200       0.35925900       0.13973300
C       -1.33994400      -1.04358200       0.38500900
C       -1.33976100       0.96213300      -1.14926700
O        1.28804700      -0.44921000      -0.95930700
H        2.52080700       0.05758300       1.36827400
H        1.20078500      -1.05467600       1.69525300
H        1.09656600       0.61575200       2.24097000
H        1.11339300       1.40962000      -0.15167400
H       -1.07437400       0.99913600       0.98290000
H       -1.06449800      -1.72784400      -0.41604600
H       -2.42646000      -1.00809900       0.42621900
H       -0.98361800      -1.46142000       1.32455400
H       -1.00529800       0.39823300      -2.01670500
H       -1.01202400       1.99261900      -1.27244900
H       -2.42798000       0.95155900      -1.13521200
H        1.04263800      -1.36756500      -0.78492400
