15
Properties=species:S:1:pos:R:3 pbc="F F F"
C       -2.10214100      -0.17103000       0.41782100
C       -0.60289300      -0.27472300       0.49011400
C        0.01230600      -1.14266100       1.30645800
C        0.15779300       0.64004500      -0.42585500
C        1.13578900       0.10639800      -1.42911600
N        1.60451200       0.78641400      -0.23028800
H       -2.58253800      -0.86052200       1.10690000
H       -2.45983900      -0.38984300      -0.58965800
H       -2.43393300       0.84038800       0.65768100
H       -0.55342600      -1.80421000       1.95067500
H        1.09315700      -1.18875500       1.34596000
H       -0.38349200       1.54823000      -0.72343100
H        1.24670600       0.62734900      -2.38356800
H        1.33271000      -0.96578300      -1.46484500
H        1.90395000       1.74007400      -0.44423100
