15
Properties=species:S:1:pos:R:3 pbc="F F F"
C        0.20392600       0.45402100       2.33654600
C       -0.23464200       0.33277300       0.89326200
N        0.50453300       1.07934900      -0.13796600
C        0.60471200      -0.39099700      -0.11155100
C       -0.02454500      -1.11449800      -1.29953100
O       -1.10173400      -0.36500700      -1.81926000
H       -0.17308700       1.37377000       2.78307700
H        1.28909100       0.46230200       2.41927100
H       -0.17247800      -0.37760500       2.93138300
H       -1.31878000       0.32982200       0.73621700
H        1.34447700       1.50528600       0.26154800
H        1.56331300      -0.79458500       0.23906400
H       -0.39584000      -2.11205800      -1.00492200
H        0.74631300      -1.28365100      -2.08540900
H       -0.89757100       0.57354000      -1.67275300
