15
Properties=species:S:1:pos:R:3 pbc="F F F"
C       -0.02102200      -0.03791000      -2.38241200
C       -0.45866600      -0.51104800      -1.00349100
C        0.03784200       0.41889400       0.12564900
C       -0.51789500      -0.00022500       1.44015400
C       -0.92543300      -0.33418200       2.52795200
N        1.51180300       0.46049100       0.15822500
H       -0.37347600      -0.71870900      -3.15452000
H        1.06300000       0.01600000      -2.44652700
H       -0.41718900       0.95195300      -2.60108900
H       -0.08415900      -1.52424500      -0.82630800
H       -1.55039500      -0.57063700      -0.95986900
H       -0.32387900       1.44598600      -0.07741700
H       -1.30145000      -0.63195100       3.47610000
H        1.88631800      -0.47138000       0.32350700
H        1.82965400       1.06637400       0.91143400
