19
Properties=species:S:1:pos:R:3 pbc="F F F"
C       -2.40025200      -1.13187600      -0.53992700
C       -1.64340200      -0.73648800       0.48487400
C       -1.10595000       0.65636200       0.65851300
C        0.40044700       0.71552200       0.99784400
C        1.30305800       0.37527800      -0.17096200
C        1.94749800       1.33301600      -0.85264900
C        1.44853800      -1.07817100      -0.52294900
H       -2.78402800      -2.14305100      -0.59778900
H       -2.65217800      -0.45715400      -1.34972600
H       -1.41053400      -1.44360700       1.28238600
H       -1.65077900       1.13322900       1.48567700
H       -1.31164600       1.25415600      -0.23381900
H        0.60409600       0.03363700       1.83211000
H        0.63189200       1.72612700       1.34857100
H        1.84098800       2.37835900      -0.59007700
H        2.59157200       1.09012300      -1.68853300
H        1.84600100      -1.64190400       0.32231500
H        2.11467000      -1.21693000      -1.37069300
H        0.48032800      -1.51484300      -0.76888600
