18
Properties=species:S:1:pos:R:3 pbc="F F F"
C       -1.33235500      -1.05271600       0.30631300
C        0.17364400      -0.80095900       0.43846700
C        0.69599500       0.35986500      -0.42491400
C        0.19550200       0.63419700      -1.80997700
C       -0.10154200       1.59674800      -0.70202200
C        0.55771400      -0.57832200       1.90997600
H       -1.61490300      -1.23964200      -0.72734600
H       -1.91089500      -0.20492700       0.66717500
H       -1.62034200      -1.92302700       0.89255400
H        0.69143200      -1.71530800       0.09844500
H        1.76619400       0.52802000      -0.28522300
H       -0.62561200       0.03900900      -2.19551500
H        0.91935300       0.93282500      -2.56202900
H       -1.12287600       1.64658200      -0.34018000
H        0.41868300       2.54953800      -0.70333100
H        0.08066100       0.31488700       2.30792100
H        1.63407700      -0.45816500       2.01667100
H        0.25048000      -1.42267500       2.52379400
