17
Properties=species:S:1:pos:R:3 pbc="F F F"
C        1.43048100      -0.47974200      -0.92457600
C        0.80424400      -0.05042800       0.40930700
C       -0.75370600      -0.10007800       0.43244500
N       -1.20867800      -1.50147000       0.32169100
C       -1.41026800       0.80515600      -0.63223400
O        1.25159200       1.26721600       0.75293300
H        2.51505500      -0.42692500      -0.86439800
H        1.11206300       0.16521800      -1.74260600
H        1.15889000      -1.50247600      -1.17664700
H        1.17481900      -0.71706700       1.20858200
H       -1.06847700       0.26456700       1.42483300
H       -0.98266900      -1.87874100      -0.59603800
H       -2.21788000      -1.55164800       0.44026200
H       -1.18239900       0.46592000      -1.64108300
H       -1.07044900       1.83477500      -0.53559700
H       -2.49251800       0.80053300      -0.51920100
H        1.07707300       1.86895900       0.01692900
