17
Properties=species:S:1:pos:R:3 pbc="F F F"
C       -2.68317700      -0.00119500      -0.01027600
C       -1.25487300       0.00960400      -0.54394800
C       -0.31768000      -1.09272500      -0.00478800
C        0.60118600      -0.01004100       0.61108800
C       -0.32007300       1.09285000       0.03638500
C        1.99131100      -0.00099700       0.15486700
C        3.13763200       0.00336900      -0.22943300
H       -3.22389500      -0.87616100      -0.36708000
H       -3.22556100       0.88442100      -0.33708400
H       -2.69799400      -0.01948100       1.07784500
H       -1.28239800       0.02989000      -1.64246700
H        0.15565600      -1.69974300      -0.77880000
H       -0.76873500      -1.76441100       0.72990900
H        0.59102500      -0.03079700       1.71244200
H        0.15170700       1.72989700      -0.71392300
H       -0.77272000       1.73516600       0.79594200
H        4.14696500       0.00602600      -0.56015800
