14
Properties=species:S:1:pos:R:3 pbc="F F F"
C       -0.85140500       1.78339200      -0.51375900
N       -1.03847400       0.33433100      -0.52901800
C       -0.56728100      -0.35116800       0.69004700
C        0.96209700      -0.53238300       0.72791300
O        1.41089900      -1.29399700      -0.38646500
H       -1.21403400       2.20363700      -1.45463500
H        0.20173100       2.09275700      -0.39061500
H       -1.42565600       2.22931600       0.30350100
H       -0.55071400      -0.06488000      -1.33618500
H       -1.04741000      -1.34373700       0.74356200
H       -0.90428400       0.21184100       1.56980700
H        1.26465300      -1.02885900       1.67503900
H        1.47722600       0.43782000       0.68798400
H        0.92014700      -2.12528300      -0.42883200
