14
Properties=species:S:1:pos:R:3 pbc="F F F"
C       -0.49962600      -1.59937700       1.55008900
N       -0.52240100      -0.31731200       1.34850700
N       -0.45177900       0.15817800       0.06800200
C        0.15914600       1.46675600      -0.21799500
C        0.80379300       0.86992900      -1.48073500
C        0.28873800      -0.50517700      -1.02474300
H       -0.61012600      -1.96187300       2.57159700
H       -0.37964400      -2.34179500       0.74769400
H        0.87815800       1.80174800       0.54548100
H       -0.56931000       2.27944400      -0.37761400
H        1.88973600       0.96595200      -1.54380000
H        0.37089100       1.22518200      -2.41892800
H        1.07285200      -1.18996500      -0.66259900
H       -0.34559900      -1.05754400      -1.73708800
