19
Properties=species:S:1:pos:R:3 pbc="F F F"
C       -2.46669100      -0.14397600       0.17472700
C       -0.95385000      -0.13958400       0.18766100
C       -0.29406400      -0.60927900      -0.89810700
C        1.19270300      -0.66947700      -1.15566300
C        1.82545600       0.70575100      -1.37771000
C       -0.37537000       0.42090100       1.42305000
C        0.86906500       0.30402700       1.90824300
H       -2.85933000      -0.56076700      -0.74983200
H       -2.85965200       0.86799600       0.28530800
H       -2.86422600      -0.72861600       1.00563100
H       -0.91397300      -0.96711000      -1.72131000
H        1.36326000      -1.28438700      -2.04541900
H        1.71054100      -1.18180600      -0.33664300
H        1.38043600       1.20178300      -2.23742000
H        2.89456400       0.61159200      -1.55910600
H        1.68276900       1.34661300      -0.51123900
H       -1.09269500       0.97927800       2.02785100
H        1.64911700      -0.25691800       1.41291900
H        1.12569500       0.76216800       2.85605500
