15
Properties=species:S:1:pos:R:3 pbc="F F F"
C       -0.70114200      -1.82037900       1.85688700
C       -0.86849100      -0.54867100       1.45239800
C       -0.23759100       0.05556500       0.29235800
C       -0.39713100       1.34555900      -0.12969000
C        0.40194700       1.56593900      -1.32215000
C        1.05411500       0.42334000      -1.64145400
C        0.71128100      -0.64393400      -0.64741100
H       -1.20643600      -2.19756500       2.73673000
H       -0.05854900      -2.50788200       1.31967200
H       -1.52760800       0.10313000       2.02734700
H       -1.02175100       2.09492000       0.34554600
H        0.45977100       2.50467500      -1.86243500
H        1.72593900       0.27873600      -2.48035500
H        1.60085000      -1.02247500      -0.12803900
H        0.24985500      -1.51805600      -1.12409400
