14
Properties=species:S:1:pos:R:3 pbc="F F F"
C       -2.65789800       0.66794000      -0.37405200
C       -1.49017100       0.02570900      -0.39561000
C       -0.66664600      -0.28875500       0.83451400
N        0.73379000       0.14447100       0.69883700
N        1.52214100      -0.64913900      -0.10376800
C        2.56228600      -0.11006000      -0.65582600
H       -3.20868200       0.86801100      -1.28535000
H       -3.09995600       1.00699800       0.55649200
H       -1.06702800      -0.29943000      -1.34553600
H       -0.67010300      -1.37334300       1.01723000
H       -1.10331600       0.19320500       1.72112100
H        0.83583100       1.15259400       0.51556000
H        3.22424100      -0.74214200      -1.24605700
H        2.81207500       0.95777500      -0.55309000
