21
Properties=species:S:1:pos:R:3 pbc="F F F"
C       -2.87141100       0.36670200      -0.88539100
C       -1.34887700       0.36258200      -0.94428900
C       -0.71439400      -0.26197900       0.30715300
C        0.81836600      -0.24147200       0.29238900
C        1.46886900      -1.12460200      -0.76345300
C        1.50892400       1.04469200       0.65618400
C        1.52297000      -0.10715600       1.61638400
H       -3.29370700       0.80715400      -1.78634100
H       -3.22884800       0.94031900      -0.03234900
H       -3.26252200      -0.64458300      -0.79180400
H       -0.98538800       1.38883400      -1.06230100
H       -1.02222100      -0.18361900      -1.83519500
H       -1.06450500      -1.29626100       0.41026900
H       -1.07162100       0.27279200       1.19336000
H        1.18565800      -0.81572500      -1.76936500
H        1.16642100      -2.16479500      -0.64353800
H        2.55328800      -1.08007200      -0.69409100
H        0.89519000       1.90230800       0.91211800
H        2.43890300       1.29113800       0.15406000
H        0.92041800      -0.01768100       2.51495300
H        2.46225500      -0.63241300       1.75636600
