16
Properties=species:S:1:pos:R:3 pbc="F F F"
C       -2.26292600       0.99823700       0.60906900
C       -0.73991500       0.97026400       0.58666700
C       -0.18008200      -0.23563900      -0.17469200
C        1.35086300      -0.26157800      -0.18591300
N        1.85062500      -1.42622700      -0.92122900
H       -2.62740800       1.86407800       1.15808100
H       -2.66384700       0.10583700       1.08567300
H       -2.66846200       1.04551100      -0.39960500
H       -0.36070300       0.96079500       1.61471100
H       -0.36552100       1.89461100       0.13305500
H       -0.55139300      -0.22640000      -1.20419400
H       -0.55687400      -1.16061400       0.27658800
H        1.72831000      -0.23941700       0.85936000
H        1.73574200       0.64911800      -0.66815500
H        1.50129200      -2.28786500      -0.50939100
H        2.86685100      -1.44976800      -0.90830400
