21
Properties=species:S:1:pos:R:3 pbc="F F F"
C       -0.54479800       0.04326500       3.03230800
C       -1.32106400       0.46342600       1.78984300
C       -1.20945900      -0.53193800       0.62576700
C        0.18196300      -0.60732200      -0.02894900
C        0.54555000       0.63088500      -0.80512200
C        1.06102800       0.68385000      -2.04111300
C        1.38497600      -0.46959200      -2.93839200
H       -0.67761900       0.76841000       3.83264500
H        0.52085400      -0.03495700       2.82732100
H       -0.88495000      -0.92426700       3.39667900
H       -0.98310600       1.45321700       1.46600500
H       -2.37887900       0.57373800       2.05311500
H       -1.94979400      -0.26987500      -0.13716800
H       -1.48012600      -1.53098700       0.98521300
H        0.21806000      -1.48678900      -0.67895800
H        0.93594400      -0.77571900       0.75245200
H        0.37614400       1.57565600      -0.28784500
H        1.28079500       1.66645400      -2.46008300
H        1.07317500      -1.42313000      -2.52044200
H        2.45924200      -0.51981000      -3.12643800
H        0.90108600      -0.34738300      -3.90855100
