18
Properties=species:S:1:pos:R:3 pbc="F F F"
C       -1.67708900      -1.29666700       0.93981800
C       -0.43639000      -0.66983000       1.56276100
C        0.68801400      -0.37427900       0.55800400
C        0.38816500       0.79017900      -0.41747800
O       -0.63263100       0.43471100      -1.35623500
C        1.65438300       1.22582200      -1.17436200
H       -2.42779400      -1.49606700       1.70222100
H       -1.43380500      -2.24039200       0.45493300
H       -2.11362000      -0.63838600       0.19392800
H       -0.04498800      -1.34057800       2.33615500
H       -0.71417400       0.25799800       2.07492900
H        0.91915400      -1.27883800      -0.01596400
H        1.59739500      -0.12671800       1.11701800
H       -0.00609200       1.65168400       0.15301800
H       -0.33856300      -0.32565600      -1.87542300
H        2.07839900       0.39717600      -1.74002800
H        2.41791200       1.58621400      -0.48786500
H        1.42472200       2.02451800      -1.87551000
