15
Properties=species:S:1:pos:R:3 pbc="F F F"
C       -1.56279500      -0.13858800       0.51073400
C       -0.01957900      -0.11592300       0.39914400
C        0.48159600      -1.43751900      -0.04001100
C        0.86848800      -2.53103700      -0.37675500
N        0.49342200       0.93420600      -0.50977100
C        0.24386600       2.30255900      -0.07005900
H       -1.88900300      -0.94681400       1.16086900
H       -2.02196200      -0.28294600      -0.46478400
H       -1.93197100       0.79746400       0.92376300
H        0.39729400       0.08277300       1.40630400
H        1.22783600      -3.48245600      -0.68408600
H        0.12649400       0.78944000      -1.45285000
H        0.67596700       2.46247000       0.92129700
H       -0.82768200       2.56589400      -0.01447700
H        0.71962100       2.99777700      -0.76595200
