10
Properties=species:S:1:pos:R:3 pbc="F F F"
C       -1.43700800       0.07294000      -0.10507000
C        0.08974700       0.09189400      -0.13237700
O        0.70766100       0.68809700      -0.99060200
C        0.81011400      -0.67898700       0.97756700
H       -1.84854600       0.64621200      -0.93054200
H       -1.80399300       0.49035000       0.83163600
H       -1.80408700      -0.95053000      -0.16893000
H        0.11584100      -1.15598200       1.66431400
H        1.45114900      -0.00564700       1.54338700
H        1.45123400      -1.44426500       0.54423800
