18
Properties=species:S:1:pos:R:3 pbc="F F F"
C       -0.91874300       2.14252800       1.07065500
N       -1.16655600       0.73880600       1.39160100
C       -0.75615900      -0.21042800       0.34214300
C        0.77855200      -0.32685900       0.23240600
N        1.23209200      -1.38864800      -0.68436400
C        0.99226300      -1.12745000      -2.10022100
H       -1.33197300       2.77234500       1.86156800
H       -1.37295300       2.45537900       0.11276800
H        0.15457900       2.34041600       1.00669300
H       -2.16191700       0.61035700       1.58779700
H       -1.18597200       0.06392300      -0.64379100
H       -1.17473500      -1.19382300       0.60196400
H        1.19541100      -0.53203700       1.22975000
H        1.20946800       0.62634900      -0.10114400
H        0.81503800      -2.28345100      -0.41719400
H        1.47866700      -0.19441900      -2.39655300
H       -0.07754000      -1.04439300      -2.36489700
H        1.41769800      -1.93849600      -2.69752200
