17
Properties=species:S:1:pos:R:3 pbc="F F F"
C       -0.79488300       1.69804500       0.73761500
C       -0.89569100       0.28330900       0.23680100
C       -1.60048900      -0.64832800       0.89461000
C       -0.16146200      -0.03719100      -1.04889600
C        1.36304900      -0.13279100      -0.86276900
N        1.71814700      -1.27428200      -0.02125900
H       -1.32857600       1.82879900       1.67565400
H       -1.20861300       2.39609800       0.00815300
H        0.24672900       1.98347000       0.89193300
H       -2.12171300      -0.41350300       1.81462400
H       -1.67203900      -1.66257300       0.52174800
H       -0.37407000       0.74148600      -1.79132000
H       -0.53046600      -0.98201900      -1.45690800
H        1.74413800       0.82570300      -0.44911100
H        1.83979600      -0.25242100      -1.84793100
H        1.20082400      -1.24482000       0.85432500
H        2.71382400      -1.27851700       0.18348600
