14
Properties=species:S:1:pos:R:3 pbc="F F F"
C       -2.74603800      -0.40317400       0.35237400
N       -1.30339800      -0.44598400       0.20617400
C       -0.68553500       0.66686700      -0.03116400
N        0.69188200       0.73458300      -0.18654300
C        1.53939700      -0.36167100      -0.10555900
C        2.87602800      -0.28115400      -0.26044100
H       -3.03583700      -0.78747200       1.33815600
H       -3.21922200      -1.05290700      -0.39414600
H       -3.16380500       0.61072700       0.24120500
H       -1.19634800       1.65091400      -0.12958000
H        1.10915400       1.64113200      -0.37138100
H        1.03288200      -1.30427700       0.09532500
H        3.36368700       0.66387500      -0.46060200
H        3.48698900      -1.16740100      -0.18765000
