19
Properties=species:S:1:pos:R:3 pbc="F F F"
C       -2.60253400      -2.31296300      -0.54241200
C       -1.47920400      -1.35294600      -0.77885600
C       -0.39978300      -1.24929500       0.00556500
C        0.73943600      -0.29413500      -0.24817600
C        1.09100000       0.52607300       0.96895000
C        1.40192900       1.82905700       0.99608300
C        1.45859700       2.76830600      -0.16782900
H       -2.73727200      -2.97379600      -1.40044000
H       -3.54575700      -1.78194900      -0.40197300
H       -2.42396200      -2.92816700       0.33638800
H       -1.57162900      -0.70714000      -1.65245000
H       -0.31003900      -1.89041300       0.88312200
H        0.51010700       0.34739000      -1.10392600
H        1.62843900      -0.88179800      -0.53569300
H        1.10021300      -0.02152400       1.91197800
H        1.65031300       2.27375800       1.96027700
H        1.08429500       2.31834300      -1.08362400
H        2.48472700       3.09461000      -0.34940800
H        0.87392000       3.66610100       0.03580000
