14
Properties=species:S:1:pos:R:3 pbc="F F F"
C       -1.48618200      -1.14219300       0.84503300
C       -0.05116400      -0.63127200       0.83381800
N        0.34082800      -0.18236300      -0.51485800
C        0.00793500       1.19792000      -0.86419600
C        1.41662000       0.80511900      -0.58166300
H       -1.76488000      -1.49331800       1.83659400
H       -1.61184700      -1.96671500       0.14666800
H       -2.18175700      -0.35579200       0.55795600
H        0.63180900      -1.43832800       1.14143100
H        0.06384500       0.18017600       1.58084800
H       -0.51913000       1.79816600      -0.11813500
H       -0.31396100       1.36095800      -1.89451900
H        1.86425900       1.13343600       0.36013700
H        2.12261600       0.68052300      -1.40492400
