16
Properties=species:S:1:pos:R:3 pbc="F F F"
C       -2.05118100       1.03841300      -1.47424500
C       -1.53007300       0.70849100      -0.07540000
C       -0.90500400      -0.66137800      -0.00423200
C        0.39274000      -0.93604900       0.18539700
C        1.50834900       0.06835400       0.35190900
O        2.60168100      -0.48860900       1.06620500
H       -2.52178800       2.01952100      -1.48754500
H       -2.78788300       0.30615600      -1.79761600
H       -1.24257500       1.04140000      -2.20166500
H       -2.36846900       0.75192900       0.63164400
H       -0.81577300       1.47593800       0.23774800
H       -1.59565700      -1.49534700      -0.13416600
H        0.70136500      -1.98124400       0.20502500
H        1.14840400       0.98716400       0.86281700
H        1.89543600       0.38590100      -0.63207000
H        2.28450600      -0.88953200       1.88561100
