17
Properties=species:S:1:pos:R:3 pbc="F F F"
C        2.05173800      -0.78581700       0.40227200
C        0.83447800      -1.52132000       0.88545100
C       -0.45996500      -1.19830300       0.74870200
C       -1.14027100      -0.02710000       0.08953500
C       -0.27322900       1.03094800      -0.59427700
N       -1.12585900       2.08236500      -1.16073000
H        2.95228200      -1.31651500       0.70127800
H        2.11309000       0.22122700       0.81464400
H        2.07141900      -0.69566500      -0.68410900
H        1.04598500      -2.44663400       1.42152700
H       -1.17423800      -1.89630600       1.19060400
H       -1.76849000       0.46693800       0.84354700
H       -1.85554000      -0.42445000      -0.64625700
H        0.36005700       0.55880400      -1.37263900
H        0.40885800       1.49392500       0.13148000
H       -1.78530700       1.68928800      -1.82768100
H       -0.56360500       2.78238700      -1.63738500
