17
Properties=species:S:1:pos:R:3 pbc="F F F"
C       -2.37225500       0.20606400       0.14167300
C       -0.87806600       0.26339300       0.11923100
C       -0.11614900       1.32340100      -0.21043400
C        1.35983400       1.03051100      -0.09200400
C        1.40570100      -0.44081500       0.31557700
C       -0.01544300      -0.91639300       0.46507300
C        0.84534800      -1.43031600      -0.66094500
H       -2.81076000       1.16964800      -0.10858300
H       -2.73710000      -0.09012200       1.12688700
H       -2.74809300      -0.53294900      -0.56862800
H       -0.49870000       2.28705700      -0.53314900
H        1.83907200       1.67104500       0.66184900
H        1.89380100       1.22198000      -1.03270100
H        2.18776700      -0.77653900       0.99643700
H       -0.32371700      -1.61254000       1.24574000
H        0.62576800      -1.09753800      -1.67091500
H        1.19813800      -2.45511400      -0.58596600
