14
Properties=species:S:1:pos:R:3 pbc="F F F"
C       -1.62968200       0.23313000       1.58082500
C       -0.11932400       0.12532200       1.40466200
N        0.39299700       1.01683400       0.34211500
C        0.06098000       0.59659900      -1.02449200
C        0.66391800      -0.69968900      -1.39939800
N        1.15820500      -1.70025300      -1.68088100
H       -1.95801800      -0.38386300       2.41388600
H       -2.16069100      -0.10045700       0.69145100
H       -1.92722700       1.25979300       1.78183700
H        0.15965000      -0.92922800       1.21516600
H        0.37817000       0.41909000       2.33834900
H        1.40896700       1.09653200       0.43360900
H        0.41510800       1.36167200      -1.73192400
H       -1.02971800       0.52822600      -1.14059200
