14
Properties=species:S:1:pos:R:3 pbc="F F F"
C       -2.52883400       0.86347500      -0.20574200
O       -1.12724000       0.95214900      -0.03094500
C       -0.51072800      -0.30410900       0.25006700
C        0.97918600      -0.08096000       0.43234000
C        1.93785700      -0.26415000      -0.67835400
O        1.79940400      -1.24690600       0.34037300
H       -2.91135600       1.86920700      -0.40214000
H       -3.02108200       0.45971000       0.69712600
H       -2.78654100       0.20698300      -1.05640800
H       -0.70355200      -1.01965400      -0.57571700
H       -0.95786500      -0.74462500       1.16724800
H        1.26292500       0.59896600       1.25222000
H        2.89487300       0.27265400      -0.67804000
H        1.58039700      -0.57071800      -1.66958500
