21
Properties=species:S:1:pos:R:3 pbc="F F F"
C        0.17167200       0.92782800      -2.26026400
C       -0.57042200       0.96039400      -0.92936600
C        0.11942400       0.16513900       0.20613800
C        1.49165400       0.75702000       0.55980300
C       -0.79457400      -0.04480100       1.44883700
C       -0.72569900      -1.56317100       1.24452500
C        0.13822600      -1.37547000      -0.00853200
H       -0.39265600       1.45807600      -3.02483800
H        0.31855400      -0.09479200      -2.60253500
H        1.14962200       1.39791200      -2.18412400
H       -1.57904700       0.55910100      -1.07579400
H       -0.69757900       2.00086200      -0.60946100
H        1.40183200       1.80409600       0.84537900
H        2.17825300       0.69704800      -0.28256300
H        1.94070500       0.22017100       1.39301100
H       -1.79797300       0.37695200       1.34804500
H       -0.37363000       0.30771600       2.39367600
H       -1.69045700      -2.04482700       1.06617800
H       -0.22901500      -2.10197300       2.05522100
H       -0.33843700      -1.70688400      -0.93437800
H        1.12814700      -1.83509400       0.04534000
