13
Properties=species:S:1:pos:R:3 pbc="F F F"
C        1.02948200      -1.04878700       0.53919200
C       -0.23374700      -1.54631500       0.47601600
C       -1.48148200      -0.86401400       0.13835700
N        0.28988600       1.80599500      -1.27642800
N        0.85456900       1.07248000      -0.62347400
C        1.52197200       0.27933200       0.18549300
C       -1.81817000       0.40195700       0.43648500
H        1.81540300      -1.71526700       0.88941300
H       -0.34179200      -2.60797800       0.69493900
H       -2.23485100      -1.49593000      -0.33654500
H        2.59087800       0.48675400       0.23996500
H       -2.79470400       0.78964700       0.17576900
H       -1.15444800       1.06040700       0.98251400
