19
Properties=species:S:1:pos:R:3 pbc="F F F"
C       -0.18748100       0.17100600      -2.61739300
C       -0.66172800      -0.69712700      -1.45228400
C       -0.19698500      -0.18199700      -0.09640800
C       -1.07983200       0.43731900       0.71992000
C       -0.79125900       1.07379100       2.04278600
C        1.23492400      -0.37938500       0.19607800
C        1.78413800      -0.60883500       1.39663200
H       -0.52559400      -0.24294500      -3.56537800
H        0.89852700       0.23326700      -2.64804100
H       -0.57753100       1.18300200      -2.53322500
H       -0.29705100      -1.72067100      -1.59969900
H       -1.75515600      -0.74911200      -1.46733100
H       -2.11155100       0.51883100       0.37606500
H        0.24657400       1.39189600       2.12346000
H       -0.99042700       0.38834200       2.87105300
H       -1.43145600       1.94292700       2.19106400
H        1.88968000      -0.38542400      -0.67781000
H        1.19116600      -0.68556700       2.29901700
H        2.85215900      -0.76318000       1.49483400
