18
Properties=species:S:1:pos:R:3 pbc="F F F"
N       -1.16565300      -1.56717800      -0.60349900
C       -1.42268500      -0.12251000      -0.59831600
C       -0.77617700       0.58089600       0.60158700
C        0.78267000       0.61936300       0.61075800
N        1.38913400      -0.71956400       0.71930900
C        1.35639000       1.35220200      -0.60677000
H       -1.63401800      -2.00696900      -1.39163600
H       -1.50810500      -1.99303100       0.25416400
H       -2.51326700       0.09176600      -0.58475600
H       -1.04261800       0.30270400      -1.53780000
H       -1.11869800       0.09871300       1.52474300
H       -1.14881200       1.61061700       0.63723500
H        1.07690700       1.18510600       1.51614600
H        1.11550100      -1.28212000      -0.08521200
H        1.04941600      -1.18887200       1.55542800
H        1.15471100       0.80750800      -1.52690500
H        2.43514300       1.45361500      -0.51388900
H        0.92829000       2.34844800      -0.70173800
