14
Properties=species:S:1:pos:R:3 pbc="F F F"
C        0.75185400       1.18609200      -0.18172500
C       -0.70857800       1.21302400       0.27114600
C       -1.40253500      -0.07252700      -0.18105600
O       -0.64923700      -1.21328400       0.23938400
C        0.69340600      -1.18705200      -0.21458600
O        1.37587400      -0.03020500       0.23870900
H        1.33013200       2.01576200       0.25262200
H        0.81476500       1.27468100      -1.28869100
H       -1.22255900       2.09257400      -0.13341800
H       -0.75189200       1.28771700       1.36189700
H       -1.51108000      -0.08414400      -1.28797200
H       -2.40905300      -0.16870500       0.25377000
H        0.72060500      -1.23423900      -1.34135600
H        1.21110500      -2.07295600       0.19573100
