12
Properties=species:S:1:pos:R:3 pbc="F F F"
C       -2.98319900      -0.03194100       0.37147300
C       -1.52715000      -0.02823700       0.36851000
C       -0.31644600      -0.04205400       0.33523300
C        1.14069900      -0.03748600       0.36822100
C        1.93683600       0.72022100      -0.62766600
O        1.83252200      -0.69209000      -0.69790200
H       -3.36795400       0.00206300       1.39209300
H       -3.36707200      -0.93479000      -0.10638300
H       -3.37564900       0.83167000      -0.16858000
H        1.58120300      -0.21351700       1.36486900
H        2.93072400       1.10266800      -0.35782900
H        1.43413600       1.26560900      -1.43558100
